                                  MODFLOW-LGR      
      U.S. GEOLOGICAL SURVEY MODULAR FINITE-DIFFERENCE GROUNDWATER FLOW MODEL
                 VERSION GWM-2005 1.4.2 032513,FROM MF-LGR V1.2


     FINAL FLOW PROCESS SIMULATION FOR GWM                                                                                                                                                                   


 REWOUND ..\data\DEWATER\dewater.dis
 FILE TYPE:DIS   UNIT   11

 REWOUND ..\data\DEWATER\dewater.ba6
 FILE TYPE:BAS6   UNIT   12

 REWOUND ..\data\DEWATER\dewater.bc6
 FILE TYPE:BCF6   UNIT   13

 REWOUND ..\data\DEWATER\dewater.pcg
 FILE TYPE:PCG   UNIT   14

 REWOUND ..\data\DEWATER\dewater.gwm
 FILE TYPE:GWM   UNIT   15

 BAS -- BASIC PACKAGE, VERSION 7, 5/2/2005 INPUT READ FROM UNIT   12

 DISCRETIZATION INPUT DATA READ FROM UNIT   11
 #DEWATER Sample Problem
 #February 20, 2005
    1 LAYERS        20 ROWS        30 COLUMNS
    1 STRESS PERIOD(S) IN SIMULATION
 MODEL TIME UNIT IS DAYS
 MODEL LENGTH UNIT IS UNDEFINED
  Confining bed flag for each layer:
   0

                     DELR =   100.000    

                     DELC =   100.000    

 TOP ELEVATION OF LAYER 1 =   100.000    

   MODEL LAYER BOTTOM EL. =   100.000     FOR LAYER   1


 STRESS PERIOD     LENGTH       TIME STEPS     MULTIPLIER FOR DELT    SS FLAG
 ----------------------------------------------------------------------------
        1         1000.000          1                    1.000         SS

 STEADY-STATE SIMULATION



 
 #DEWATER Sample Problem                                                         
 #February 20, 2005                                                              
 THE FREE FORMAT OPTION HAS BEEN SELECTED



                     BOUNDARY ARRAY FOR LAYER   1
 READING ON UNIT   12 WITH FORMAT: (20I4)              

                1           2           3           4           5           6           7           8           9          10
               11          12          13          14          15          16          17          18          19          20
               21          22          23          24          25          26          27          28          29          30
 ............................................................................................................................
   1           -1           1           1           1           1           1           1           1           1           1
                1           1           1           1           1           1           1           1           1           1
                1           1           1           1           1           1           1           1           1          -1
   2           -1           1           1           1           1           1           1           1           1           1
                1           1           1           1           1           1           1           1           1           1
                1           1           1           1           1           1           1           1           1          -1
   3           -1           1           1           1           1           1           1           1           1           1
                1           1           1           1           1           1           1           1           1           1
                1           1           1           1           1           1           1           1           1          -1
   4           -1           1           1           1           1           1           1           1           1           1
                1           1           1           1           1           1           1           1           1           1
                1           1           1           1           1           1           1           1           1          -1
   5           -1           1           1           1           1           1           1           1           1           1
                1           1           1           1           1           1           1           1           1           1
                1           1           1           1           1           1           1           1           1          -1
   6           -1           1           1           1           1           1           1           1           1           1
                1           1           1           1           1           1           1           1           1           1
                1           1           1           1           1           1           1           1           1          -1
   7           -1           1           1           1           1           1           1           1           1           1
                1           1           1           1           1           1           1           1           1           1
                1           1           1           1           1           1           1           1           1          -1
   8           -1           1           1           1           1           1           1           1           1           1
                1           1           1           1           1           1           1           1           1           1
                1           1           1           1           1           1           1           1           1          -1
   9           -1           1           1           1           1           1           1           1           1           1
                1           1           1           1           1           1           1           1           1           1
                1           1           1           1           1           1           1           1           1          -1
  10           -1           1           1           1           1           1           1           1           1           1
                1           1           1           1           1           1           1           1           1           1
                1           1           1           1           1           1           1           1           1          -1
  11           -1           1           1           1           1           1           1           1           1           1
                1           1           1           1           1           1           1           1           1           1
                1           1           1           1           1           1           1           1           1          -1
  12           -1           1           1           1           1           1           1           1           1           1
                1           1           1           1           1           1           1           1           1           1
                1           1           1           1           1           1           1           1           1          -1
  13           -1           1           1           1           1           1           1           1           1           1
                1           1           1           1           1           1           1           1           1           1
                1           1           1           1           1           1           1           1           1          -1
  14           -1           1           1           1           1           1           1           1           1           1
                1           1           1           1           1           1           1           1           1           1
                1           1           1           1           1           1           1           1           1          -1
  15           -1           1           1           1           1           1           1           1           1           1
                1           1           1           1           1           1           1           1           1           1
                1           1           1           1           1           1           1           1           1          -1
  16           -1           1           1           1           1           1           1           1           1           1
                1           1           1           1           1           1           1           1           1           1
                1           1           1           1           1           1           1           1           1          -1
  17           -1           1           1           1           1           1           1           1           1           1
                1           1           1           1           1           1           1           1           1           1
                1           1           1           1           1           1           1           1           1          -1
  18           -1           1           1           1           1           1           1           1           1           1
                1           1           1           1           1           1           1           1           1           1
                1           1           1           1           1           1           1           1           1          -1
  19           -1           1           1           1           1           1           1           1           1           1
                1           1           1           1           1           1           1           1           1           1
                1           1           1           1           1           1           1           1           1          -1
  20           -1           1           1           1           1           1           1           1           1           1
                1           1           1           1           1           1           1           1           1           1
                1           1           1           1           1           1           1           1           1          -1

 AQUIFER HEAD WILL BE SET TO  0.0000     AT ALL NO-FLOW NODES (IBOUND=0).



                       INITIAL HEAD FOR LAYER   1
 READING ON UNIT   12 WITH FORMAT: (10F13.0)           

            1           2           3           4           5           6           7           8           9          10
           11          12          13          14          15          16          17          18          19          20
           21          22          23          24          25          26          27          28          29          30
 ........................................................................................................................
   1    80.00       70.00       70.00       70.00       70.00       70.00       70.00       70.00       70.00       70.00    
        70.00       70.00       70.00       70.00       70.00       70.00       70.00       70.00       70.00       70.00    
        70.00       70.00       70.00       70.00       70.00       70.00       70.00       70.00       70.00       60.00    
   2    80.00       70.00       70.00       70.00       70.00       70.00       70.00       70.00       70.00       70.00    
        70.00       70.00       70.00       70.00       70.00       70.00       70.00       70.00       70.00       70.00    
        70.00       70.00       70.00       70.00       70.00       70.00       70.00       70.00       70.00       60.00    
   3    80.00       70.00       70.00       70.00       70.00       70.00       70.00       70.00       70.00       70.00    
        70.00       70.00       70.00       70.00       70.00       70.00       70.00       70.00       70.00       70.00    
        70.00       70.00       70.00       70.00       70.00       70.00       70.00       70.00       70.00       60.00    
   4    80.00       70.00       70.00       70.00       70.00       70.00       70.00       70.00       70.00       70.00    
        70.00       70.00       70.00       70.00       70.00       70.00       70.00       70.00       70.00       70.00    
        70.00       70.00       70.00       70.00       70.00       70.00       70.00       70.00       70.00       60.00    
   5    80.00       70.00       70.00       70.00       70.00       70.00       70.00       70.00       70.00       70.00    
        70.00       70.00       70.00       70.00       70.00       70.00       70.00       70.00       70.00       70.00    
        70.00       70.00       70.00       70.00       70.00       70.00       70.00       70.00       70.00       60.00    
   6    80.00       70.00       70.00       70.00       70.00       70.00       70.00       70.00       70.00       70.00    
        70.00       70.00       70.00       70.00       70.00       70.00       70.00       70.00       70.00       70.00    
        70.00       70.00       70.00       70.00       70.00       70.00       70.00       70.00       70.00       60.00    
   7    80.00       70.00       70.00       70.00       70.00       70.00       70.00       70.00       70.00       70.00    
        70.00       70.00       70.00       70.00       70.00       70.00       70.00       70.00       70.00       70.00    
        70.00       70.00       70.00       70.00       70.00       70.00       70.00       70.00       70.00       60.00    
   8    80.00       70.00       70.00       70.00       70.00       70.00       70.00       70.00       70.00       70.00    
        70.00       70.00       70.00       70.00       70.00       70.00       70.00       70.00       70.00       70.00    
        70.00       70.00       70.00       70.00       70.00       70.00       70.00       70.00       70.00       60.00    
   9    80.00       70.00       70.00       70.00       70.00       70.00       70.00       70.00       70.00       70.00    
        70.00       70.00       70.00       70.00       70.00       70.00       70.00       70.00       70.00       70.00    
        70.00       70.00       70.00       70.00       70.00       70.00       70.00       70.00       70.00       60.00    
  10    80.00       70.00       70.00       70.00       70.00       70.00       70.00       70.00       70.00       70.00    
        70.00       70.00       70.00       70.00       70.00       70.00       70.00       70.00       70.00       70.00    
        70.00       70.00       70.00       70.00       70.00       70.00       70.00       70.00       70.00       60.00    
  11    80.00       70.00       70.00       70.00       70.00       70.00       70.00       70.00       70.00       70.00    
        70.00       70.00       70.00       70.00       70.00       70.00       70.00       70.00       70.00       70.00    
        70.00       70.00       70.00       70.00       70.00       70.00       70.00       70.00       70.00       60.00    
  12    80.00       70.00       70.00       70.00       70.00       70.00       70.00       70.00       70.00       70.00    
        70.00       70.00       70.00       70.00       70.00       70.00       70.00       70.00       70.00       70.00    
        70.00       70.00       70.00       70.00       70.00       70.00       70.00       70.00       70.00       60.00    
  13    80.00       70.00       70.00       70.00       70.00       70.00       70.00       70.00       70.00       70.00    
        70.00       70.00       70.00       70.00       70.00       70.00       70.00       70.00       70.00       70.00    
        70.00       70.00       70.00       70.00       70.00       70.00       70.00       70.00       70.00       60.00    
  14    80.00       70.00       70.00       70.00       70.00       70.00       70.00       70.00       70.00       70.00    
        70.00       70.00       70.00       70.00       70.00       70.00       70.00       70.00       70.00       70.00    
        70.00       70.00       70.00       70.00       70.00       70.00       70.00       70.00       70.00       60.00    
  15    80.00       70.00       70.00       70.00       70.00       70.00       70.00       70.00       70.00       70.00    
        70.00       70.00       70.00       70.00       70.00       70.00       70.00       70.00       70.00       70.00    
        70.00       70.00       70.00       70.00       70.00       70.00       70.00       70.00       70.00       60.00    
  16    80.00       70.00       70.00       70.00       70.00       70.00       70.00       70.00       70.00       70.00    
        70.00       70.00       70.00       70.00       70.00       70.00       70.00       70.00       70.00       70.00    
        70.00       70.00       70.00       70.00       70.00       70.00       70.00       70.00       70.00       60.00    
  17    80.00       70.00       70.00       70.00       70.00       70.00       70.00       70.00       70.00       70.00    
        70.00       70.00       70.00       70.00       70.00       70.00       70.00       70.00       70.00       70.00    
        70.00       70.00       70.00       70.00       70.00       70.00       70.00       70.00       70.00       60.00    
  18    80.00       70.00       70.00       70.00       70.00       70.00       70.00       70.00       70.00       70.00    
        70.00       70.00       70.00       70.00       70.00       70.00       70.00       70.00       70.00       70.00    
        70.00       70.00       70.00       70.00       70.00       70.00       70.00       70.00       70.00       60.00    
  19    80.00       70.00       70.00       70.00       70.00       70.00       70.00       70.00       70.00       70.00    
        70.00       70.00       70.00       70.00       70.00       70.00       70.00       70.00       70.00       70.00    
        70.00       70.00       70.00       70.00       70.00       70.00       70.00       70.00       70.00       60.00    
  20    80.00       70.00       70.00       70.00       70.00       70.00       70.00       70.00       70.00       70.00    
        70.00       70.00       70.00       70.00       70.00       70.00       70.00       70.00       70.00       70.00    
        70.00       70.00       70.00       70.00       70.00       70.00       70.00       70.00       70.00       60.00    

 DEFAULT OUTPUT CONTROL
 THE FOLLOWING OUTPUT COMES AT THE END OF EACH STRESS PERIOD:
 TOTAL VOLUMETRIC BUDGET
           HEAD

 BCF -- BLOCK-CENTERED FLOW PACKAGE, VERSION 7, 5/2/2005
         INPUT READ FROM UNIT 13
 STEADY-STATE SIMULATION
 HEAD AT CELLS THAT CONVERT TO DRY=   0.0000    
 WETTING CAPABILITY IS ACTIVE
 WETTING FACTOR=   1.00000     WETTING ITERATION INTERVAL=   1
 FLAG THAT SPECIFIES THE EQUATION TO USE FOR HEAD AT WETTED CELLS=   0
      LAYER  LAYER-TYPE CODE     INTERBLOCK T
      --------------------------------------------
         1            0          0 -- HARMONIC    

 COLUMN TO ROW ANISOTROPY =   1.00000    

     TRANSMIS. ALONG ROWS =   50.0000     FOR LAYER   1
1
                            STRESS PERIOD NO.    1, LENGTH =   1000.000    
                            -----------------------------------------------

                              NUMBER OF TIME STEPS =     1

                               MULTIPLIER FOR DELT =     1.000

                            INITIAL TIME STEP SIZE =   1000.000    
 
 SOLVING FOR HEAD 


    10 CALLS TO PCG ROUTINE FOR TIME STEP   1 IN STRESS PERIOD    1
    45 TOTAL ITERATIONS

 MAXIMUM HEAD CHANGE FOR EACH ITERATION (1 INDICATES THE FIRST INNER ITERATION):

    HEAD CHANGE    HEAD CHANGE    HEAD CHANGE    HEAD CHANGE    HEAD CHANGE 
   LAYER,ROW,COL  LAYER,ROW,COL  LAYER,ROW,COL  LAYER,ROW,COL  LAYER,ROW,COL
 ---------------------------------------------------------------------------
  1  -25.73      0  -13.14      0   4.910      0   3.087      0   1.698    
   (  1,  7, 14)  (  1,  2, 18)  (  1,  1, 10)  (  1,  1, 10)  (  1,  1, 13)
  1 -0.8140      0  0.4112      0  0.2318      0  0.2885      0  0.1261    
   (  1,  4, 16)  (  1, 20,  9)  (  1, 19, 25)  (  1,  1, 11)  (  1,  5, 12)
  1 -0.7620E-01  0 -0.5482E-01  0  0.3596E-01  0  0.1033E-01  0  0.8289E-02
   (  1,  7, 14)  (  1,  6, 22)  (  1,  1, 10)  (  1,  3, 24)  (  1,  3, 15)
  1 -0.4066E-02  0  0.2816E-02  0  0.1495E-02  0  0.1638E-02  0  0.5420E-03
   (  1,  4, 16)  (  1,  5, 14)  (  1,  7,  9)  (  1,  2, 12)  (  1,  5, 12)
  1 -0.4892E-03  0 -0.3730E-03  0  0.2206E-03  0  0.7494E-04  0  0.5508E-04
   (  1,  9, 16)  (  1,  7, 22)  (  1,  2, 11)  (  1,  6,  8)  (  1,  1, 13)
  1 -0.2762E-04  0  0.1913E-04  0  0.1116E-04  0  0.9931E-05  0  0.3874E-05
   (  1,  5, 17)  (  1,  5, 14)  (  1,  7,  9)  (  1,  2, 12)  (  1,  5, 12)
  1 -0.3311E-05  0 -0.2544E-05  0  0.1516E-05  0  0.4981E-06  0  0.3761E-06
   (  1,  9, 16)  (  1,  7, 22)  (  1,  2, 11)  (  1,  6,  8)  (  1,  1, 13)
  1 -0.1843E-06  0  0.1341E-06  0  0.7942E-07  0  0.6624E-07  0  0.2648E-07
   (  1,  5, 17)  (  1,  5, 14)  (  1,  7, 10)  (  1,  2, 12)  (  1,  4, 11)
  1 -0.2279E-07  0 -0.1766E-07  0  0.1050E-07  0  0.3389E-08  1  0.2179E-08
   (  1,  9, 16)  (  1,  7, 22)  (  1,  2, 11)  (  1,  6,  9)  (  1,  7, 18)

 MAXIMUM RESIDUAL FOR EACH ITERATION (1 INDICATES THE FIRST INNER ITERATION):

    RESIDUAL       RESIDUAL       RESIDUAL       RESIDUAL       RESIDUAL    
   LAYER,ROW,COL  LAYER,ROW,COL  LAYER,ROW,COL  LAYER,ROW,COL  LAYER,ROW,COL
 ---------------------------------------------------------------------------
  1   569.1      0   281.6      0   202.0      0   90.87      0  -73.23    
   (  1,  7, 14)  (  1,  1, 29)  (  1,  1, 29)  (  1,  1, 29)  (  1,  2, 29)
  1  -51.64      0  -21.88      0   11.34      0  -4.883      0  -3.661    
   (  1,  2, 29)  (  1,  2, 29)  (  1,  2, 28)  (  1,  3, 28)  (  1,  3, 28)
  1  -2.518      0  -1.353      0 -0.6688      0 -0.5009      0 -0.3173    
   (  1,  3, 28)  (  1,  4,  2)  (  1,  1,  2)  (  1,  2, 29)  (  1,  2, 29)
  1 -0.2463      0 -0.1116      0 -0.5664E-01  0 -0.2920E-01  0 -0.2185E-01
   (  1,  2, 29)  (  1,  1,  2)  (  1,  1,  2)  (  1,  3,  2)  (  1,  3, 28)
  1 -0.1635E-01  0 -0.9003E-02  0 -0.4384E-02  0 -0.2974E-02  0 -0.1948E-02
   (  1,  3,  2)  (  1,  3,  2)  (  1,  1,  2)  (  1,  2, 29)  (  1,  2, 29)
  1 -0.1523E-02  0 -0.7663E-03  0 -0.3801E-03  0 -0.1978E-03  0 -0.1458E-03
   (  1,  2, 29)  (  1,  1,  2)  (  1,  1,  2)  (  1,  3,  2)  (  1,  3, 28)
  1 -0.1114E-03  0 -0.6233E-04  0 -0.3018E-04  0 -0.1979E-04  0 -0.1263E-04
   (  1,  3,  2)  (  1,  3,  2)  (  1,  1,  2)  (  1,  2, 29)  (  1,  2, 29)
  1 -0.9909E-05  0 -0.5328E-05  0 -0.2622E-05  0 -0.1374E-05  0 -0.9967E-06
   (  1,  2, 29)  (  1,  1,  2)  (  1,  1,  2)  (  1,  3,  2)  (  1,  3, 28)
  1 -0.7702E-06  0 -0.4343E-06  0 -0.2104E-06  0 -0.1342E-06  1 -0.9856E-07
   (  1,  3,  2)  (  1,  3,  2)  (  1,  1,  2)  (  1,  2, 29)  (  1,  2, 29)


1
              HEAD IN LAYER   1 AT END OF TIME STEP   1 IN STRESS PERIOD    1
  ---------------------------------------------------------------------------

            1           2           3           4           5           6           7           8           9          10
           11          12          13          14          15          16          17          18          19          20
           21          22          23          24          25          26          27          28          29          30
 ........................................................................................................................
   1    80.00       77.73       75.46       73.20       70.95       68.72       66.52       64.37       62.29       60.32    
        58.49       56.87       55.50       54.43       53.69       53.26       53.11       53.19       53.43       53.80    
        54.27       54.81       55.39       56.00       56.64       57.30       57.97       58.64       59.32       60.00    
   2    80.00       77.72       75.45       73.18       70.92       68.68       66.47       64.30       62.19       60.17    
        58.29       56.61       55.19       54.10       53.37       52.99       52.89       53.01       53.30       53.71    
        54.20       54.76       55.35       55.98       56.63       57.29       57.96       58.64       59.32       60.00    
   3    80.00       77.72       75.44       73.16       70.89       68.63       66.38       64.16       61.99       59.89    
        57.90       56.09       54.56       53.41       52.72       52.43       52.45       52.68       53.06       53.53    
        54.08       54.67       55.29       55.94       56.60       57.27       57.95       58.63       59.31       60.00    
   4    80.00       77.71       75.42       73.13       70.84       68.55       66.26       63.98       61.72       59.49    
        57.33       55.30       53.54       52.26       51.66       51.56       51.79       52.19       52.71       53.29    
        53.90       54.55       55.21       55.88       56.56       57.24       57.93       58.62       59.31       60.00    
   5    80.00       77.70       75.41       73.10       70.79       68.47       66.14       63.79       61.41       59.02    
        56.61       54.24       52.05       50.42       50.09       50.38       50.94       51.61       52.30       53.00    
        53.70       54.41       55.11       55.81       56.51       57.21       57.91       58.61       59.30       60.00    
   6    80.00       77.70       75.40       73.08       70.76       68.41       66.03       63.61       61.13       58.56    
        55.87       53.01       50.00       47.28       47.93       48.91       50.00       50.99       51.88       52.71    
        53.50       54.27       55.01       55.74       56.47       57.18       57.89       58.60       59.30       60.00    
   7    80.00       77.70       75.39       73.08       70.74       68.37       65.97       63.50       60.93       58.23    
        55.29       51.93       47.66       40.76       45.43       47.32       49.17       50.46       51.52       52.46    
        53.33       54.14       54.93       55.69       56.43       57.16       57.88       58.59       59.29       60.00    
   8    80.00       77.71       75.40       73.09       70.75       68.38       65.97       63.48       60.88       58.13    
        55.13       51.77       47.95       44.23       45.69       47.35       48.88       50.17       51.29       52.29    
        53.20       54.06       54.87       55.65       56.41       57.14       57.87       58.58       59.29       60.00    
   9    80.00       77.72       75.43       73.12       70.80       68.44       66.03       63.56       60.99       58.27    
        55.33       52.05       48.13       42.52       45.77       47.49       48.85       50.06       51.17       52.19    
        53.13       54.01       54.84       55.64       56.40       57.14       57.87       58.58       59.29       60.00    
  10    80.00       77.73       75.46       73.18       70.88       68.55       66.17       63.74       61.24       58.62    
        55.88       52.99       50.00       47.34       47.38       47.99       48.95       50.05       51.14       52.17    
        53.13       54.02       54.86       55.65       56.42       57.16       57.88       58.59       59.30       60.00    
  11    80.00       77.76       75.51       73.26       70.99       68.69       66.37       64.00       61.59       59.11    
        56.58       54.02       51.54       49.46       48.42       48.14       48.93       50.05       51.18       52.23    
        53.19       54.08       54.91       55.70       56.45       57.19       57.90       58.61       59.30       60.00    
  12    80.00       77.79       75.57       73.35       71.12       68.87       66.60       64.32       62.00       59.66    
        57.31       54.96       52.67       50.55       48.70       47.23       48.56       50.03       51.29       52.37    
        53.33       54.20       55.01       55.78       56.52       57.23       57.94       58.63       59.32       60.00    
  13    80.00       77.82       75.63       73.45       71.26       69.06       66.86       64.66       62.44       60.23    
        58.02       55.83       53.65       51.38       48.58       43.51       48.07       50.21       51.58       52.65    
        53.56       54.38       55.15       55.89       56.60       57.29       57.98       58.66       59.33       60.00    
  14    80.00       77.85       75.70       73.55       71.41       69.27       67.13       65.00       62.89       60.79    
        58.73       56.70       54.71       52.73       50.74       48.98       50.00       51.17       52.18       53.07    
        53.87       54.61       55.33       56.02       56.70       57.37       58.03       58.69       59.34       60.00    
  15    80.00       77.88       75.77       73.66       71.55       69.46       67.39       65.33       63.31       61.32    
        59.39       57.53       55.75       54.10       52.66       51.69       51.77       52.28       52.92       53.57    
        54.23       54.88       55.52       56.16       56.80       57.44       58.08       58.72       59.36       60.00    
  16    80.00       77.91       75.83       73.75       71.69       69.64       67.62       65.63       63.69       61.80    
        59.99       58.27       56.68       55.26       54.10       53.34       53.12       53.27       53.62       54.08    
        54.60       55.15       55.72       56.31       56.91       57.52       58.14       58.75       59.38       60.00    
  17    80.00       77.94       75.88       73.83       71.80       69.80       67.82       65.89       64.01       62.21    
        60.49       58.89       57.43       56.16       55.14       54.44       54.10       54.06       54.23       54.53    
        54.93       55.40       55.91       56.45       57.01       57.59       58.18       58.79       59.39       60.00    
  18    80.00       77.96       75.92       73.90       71.89       69.92       67.98       66.09       64.27       62.52    
        60.88       59.36       57.99       56.81       55.87       55.19       54.79       54.64       54.69       54.89    
        55.21       55.60       56.06       56.56       57.09       57.65       58.23       58.81       59.40       60.00    
  19    80.00       77.97       75.95       73.94       71.96       70.00       68.09       66.23       64.44       62.74    
        61.14       59.67       58.36       57.24       56.33       55.66       55.22       55.02       55.00       55.14    
        55.40       55.75       56.17       56.64       57.15       57.69       58.25       58.83       59.41       60.00    
  20    80.00       77.98       75.97       73.97       71.99       70.05       68.15       66.30       64.53       62.85    
        61.27       59.83       58.54       57.44       56.55       55.88       55.44       55.20       55.15       55.26    
        55.49       55.82       56.22       56.68       57.18       57.72       58.27       58.84       59.42       60.00    
1
  VOLUMETRIC BUDGET FOR ENTIRE MODEL AT END OF TIME STEP  1 IN STRESS PERIOD   1
  ------------------------------------------------------------------------------

     CUMULATIVE VOLUMES      L**3       RATES FOR THIS TIME STEP      L**3/T
     ------------------                 ------------------------

           IN:                                      IN:
           ---                                      ---
             STORAGE =           0.0000               STORAGE =           0.0000
       CONSTANT HEAD =     2865654.9952         CONSTANT HEAD =        2865.6550
        MANAGED FLOW =           0.0000          MANAGED FLOW =           0.0000

            TOTAL IN =     2865654.9952              TOTAL IN =        2865.6550

          OUT:                                     OUT:
          ----                                     ----
             STORAGE =           0.0000               STORAGE =           0.0000
       CONSTANT HEAD =           0.0000         CONSTANT HEAD =           0.0000
        MANAGED FLOW =     2865654.9928          MANAGED FLOW =        2865.6550

           TOTAL OUT =     2865654.9928             TOTAL OUT =        2865.6550

            IN - OUT =       2.4104E-03              IN - OUT =       2.4104E-06

 PERCENT DISCREPANCY =           0.00     PERCENT DISCREPANCY =           0.00






          TIME SUMMARY AT END OF TIME STEP   1 IN STRESS PERIOD    1
                    SECONDS     MINUTES      HOURS       DAYS        YEARS
                    -----------------------------------------------------------
   TIME STEP LENGTH 8.64000E+07 1.44000E+06  24000.      1000.0      2.7379    
 STRESS PERIOD TIME 8.64000E+07 1.44000E+06  24000.      1000.0      2.7379    
         TOTAL TIME 8.64000E+07 1.44000E+06  24000.      1000.0      2.7379    
1

 Run end date and time (yyyy/mm/dd hh:mm:ss): 2013/03/21  9:12:10
 Elapsed run time:  0.051 Seconds

