                                  MODFLOW-LGR2     
      U.S. GEOLOGICAL SURVEY MODULAR FINITE-DIFFERENCE GROUNDWATER FLOW MODEL
                 VERSION GWM-2005 1.5.0 081513,FROM MF-LGR V2.0


     FINAL FLOW PROCESS SIMULATION FOR GWM                                                                                                                                                                   


 REWOUND ..\data\DEWATER-LGR\deworg3_chd.dis
 FILE TYPE:DIS   UNIT   21

 REWOUND ..\data\DEWATER-LGR\deworg3_chd.ba6
 FILE TYPE:BAS6   UNIT   22

 REWOUND ..\data\DEWATER-LGR\deworg3_chd.bc6
 FILE TYPE:BCF6   UNIT   23

 REWOUND ..\data\DEWATER-LGR\deworg3.pcg
 FILE TYPE:PCG   UNIT   24

 REWOUND ..\data\DEWATER-LGR\deworg3_chd.gwm
 FILE TYPE:GWM   UNIT   25

 BAS -- BASIC PACKAGE, VERSION 7, 5/2/2005 INPUT READ FROM UNIT   22

 DISCRETIZATION INPUT DATA READ FROM UNIT   21
 #DEWATER-LGR2 Sample Problem, child DIS file 3:1 refinement
 #updated August 2013
    1 LAYERS        33 ROWS        24 COLUMNS
    1 STRESS PERIOD(S) IN SIMULATION
 MODEL TIME UNIT IS DAYS
 MODEL LENGTH UNIT IS UNDEFINED
  Confining bed flag for each layer:
   0

                     DELR =   33.3333    

                     DELC =   33.3333    

 TOP ELEVATION OF LAYER 1 =   100.000    

   MODEL LAYER BOTTOM EL. =   0.00000     FOR LAYER   1


 STRESS PERIOD     LENGTH       TIME STEPS     MULTIPLIER FOR DELT    SS FLAG
 ----------------------------------------------------------------------------
        1         1000.000          1                    1.000         SS

 STEADY-STATE SIMULATION



 
 #DEWATER-LGR2 Sample Problem, BAS6 file, Child 33x24                            
 #updated August 2013                                                            
 THE FREE FORMAT OPTION HAS BEEN SELECTED



                     BOUNDARY ARRAY FOR LAYER   1
 READING ON UNIT   22 WITH FORMAT: (20I4)              

                1           2           3           4           5           6           7           8           9          10
               11          12          13          14          15          16          17          18          19          20
               21          22          23          24
 ............................................................................................................................
   1           59          59          59          59          59          59          59          59          59          59
               59          59          59          59          59          59          59          59          59          59
               59          59          59          59
   2           59           1           1           1           1           1           1           1           1           1
                1           1           1           1           1           1           1           1           1           1
                1           1           1          59
   3           59           1           1           1           1           1           1           1           1           1
                1           1           1           1           1           1           1           1           1           1
                1           1           1          59
   4           59           1           1           1           1           1           1           1           1           1
                1           1           1           1           1           1           1           1           1           1
                1           1           1          59
   5           59           1           1           1           1           1           1           1           1           1
                1           1           1           1           1           1           1           1           1           1
                1           1           1          59
   6           59           1           1           1           1           1           1           1           1           1
                1           1           1           1           1           1           1           1           1           1
                1           1           1          59
   7           59           1           1           1           1           1           1           1           1           1
                1           1           1           1           1           1           1           1           1           1
                1           1           1          59
   8           59           1           1           1           1           1           1           1           1           1
                1           1           1           1           1           1           1           1           1           1
                1           1           1          59
   9           59           1           1           1           1           1           1           1           1           1
                1           1           1           1           1           1           1           1           1           1
                1           1           1          59
  10           59           1           1           1           1           1           1           1           1           1
                1           1           1           1           1           1           1           1           1           1
                1           1           1          59
  11           59           1           1           1           1           1           1           1           1           1
                1           1           1           1           1           1           1           1           1           1
                1           1           1          59
  12           59           1           1           1           1           1           1           1           1           1
                1           1           1           1           1           1           1           1           1           1
                1           1           1          59
  13           59           1           1           1           1           1           1           1           1           1
                1           1           1           1           1           1           1           1           1           1
                1           1           1          59
  14           59           1           1           1           1           1           1           1           1           1
                1           1           1           1           1           1           1           1           1           1
                1           1           1          59
  15           59           1           1           1           1           1           1           1           1           1
                1           1           1           1           1           1           1           1           1           1
                1           1           1          59
  16           59           1           1           1           1           1           1           1           1           1
                1           1           1           1           1           1           1           1           1           1
                1           1           1          59
  17           59           1           1           1           1           1           1           1           1           1
                1           1           1           1           1           1           1           1           1           1
                1           1           1          59
  18           59           1           1           1           1           1           1           1           1           1
                1           1           1           1           1           1           1           1           1           1
                1           1           1          59
  19           59           1           1           1           1           1           1           1           1           1
                1           1           1           1           1           1           1           1           1           1
                1           1           1          59
  20           59           1           1           1           1           1           1           1           1           1
                1           1           1           1           1           1           1           1           1           1
                1           1           1          59
  21           59           1           1           1           1           1           1           1           1           1
                1           1           1           1           1           1           1           1           1           1
                1           1           1          59
  22           59           1           1           1           1           1           1           1           1           1
                1           1           1           1           1           1           1           1           1           1
                1           1           1          59
  23           59           1           1           1           1           1           1           1           1           1
                1           1           1           1           1           1           1           1           1           1
                1           1           1          59
  24           59           1           1           1           1           1           1           1           1           1
                1           1           1           1           1           1           1           1           1           1
                1           1           1          59
  25           59           1           1           1           1           1           1           1           1           1
                1           1           1           1           1           1           1           1           1           1
                1           1           1          59
  26           59           1           1           1           1           1           1           1           1           1
                1           1           1           1           1           1           1           1           1           1
                1           1           1          59
  27           59           1           1           1           1           1           1           1           1           1
                1           1           1           1           1           1           1           1           1           1
                1           1           1          59
  28           59           1           1           1           1           1           1           1           1           1
                1           1           1           1           1           1           1           1           1           1
                1           1           1          59
  29           59           1           1           1           1           1           1           1           1           1
                1           1           1           1           1           1           1           1           1           1
                1           1           1          59
  30           59           1           1           1           1           1           1           1           1           1
                1           1           1           1           1           1           1           1           1           1
                1           1           1          59
  31           59           1           1           1           1           1           1           1           1           1
                1           1           1           1           1           1           1           1           1           1
                1           1           1          59
  32           59           1           1           1           1           1           1           1           1           1
                1           1           1           1           1           1           1           1           1           1
                1           1           1          59
  33           59          59          59          59          59          59          59          59          59          59
               59          59          59          59          59          59          59          59          59          59
               59          59          59          59

 AQUIFER HEAD WILL BE SET TO  0.0000     AT ALL NO-FLOW NODES (IBOUND=0).



                       INITIAL HEAD FOR LAYER   1
 READING ON UNIT   22 WITH FORMAT: (10F13.0)           

            1           2           3           4           5           6           7           8           9          10
           11          12          13          14          15          16          17          18          19          20
           21          22          23          24
 ........................................................................................................................
   1    70.00       70.00       70.00       70.00       70.00       70.00       70.00       70.00       70.00       70.00    
        70.00       70.00       70.00       70.00       70.00       70.00       70.00       70.00       70.00       70.00    
        70.00       70.00       70.00       70.00    
   2    70.00       70.00       70.00       70.00       70.00       70.00       70.00       70.00       70.00       70.00    
        70.00       70.00       70.00       70.00       70.00       70.00       70.00       70.00       70.00       70.00    
        70.00       70.00       70.00       70.00    
   3    70.00       70.00       70.00       70.00       70.00       70.00       70.00       70.00       70.00       70.00    
        70.00       70.00       70.00       70.00       70.00       70.00       70.00       70.00       70.00       70.00    
        70.00       70.00       70.00       70.00    
   4    70.00       70.00       70.00       70.00       70.00       70.00       70.00       70.00       70.00       70.00    
        70.00       70.00       70.00       70.00       70.00       70.00       70.00       70.00       70.00       70.00    
        70.00       70.00       70.00       70.00    
   5    70.00       70.00       70.00       70.00       70.00       70.00       70.00       70.00       70.00       70.00    
        70.00       70.00       70.00       70.00       70.00       70.00       70.00       70.00       70.00       70.00    
        70.00       70.00       70.00       70.00    
   6    70.00       70.00       70.00       70.00       70.00       70.00       70.00       70.00       70.00       70.00    
        70.00       70.00       70.00       70.00       70.00       70.00       70.00       70.00       70.00       70.00    
        70.00       70.00       70.00       70.00    
   7    70.00       70.00       70.00       70.00       70.00       70.00       70.00       70.00       70.00       70.00    
        70.00       70.00       70.00       70.00       70.00       70.00       70.00       70.00       70.00       70.00    
        70.00       70.00       70.00       70.00    
   8    70.00       70.00       70.00       70.00       70.00       70.00       70.00       70.00       70.00       70.00    
        70.00       70.00       70.00       70.00       70.00       70.00       70.00       70.00       70.00       70.00    
        70.00       70.00       70.00       70.00    
   9    70.00       70.00       70.00       70.00       70.00       70.00       70.00       70.00       70.00       70.00    
        70.00       70.00       70.00       70.00       70.00       70.00       70.00       70.00       70.00       70.00    
        70.00       70.00       70.00       70.00    
  10    70.00       70.00       70.00       70.00       70.00       70.00       70.00       70.00       70.00       70.00    
        70.00       70.00       70.00       70.00       70.00       70.00       70.00       70.00       70.00       70.00    
        70.00       70.00       70.00       70.00    
  11    70.00       70.00       70.00       70.00       70.00       70.00       70.00       70.00       70.00       70.00    
        70.00       70.00       70.00       70.00       70.00       70.00       70.00       70.00       70.00       70.00    
        70.00       70.00       70.00       70.00    
  12    70.00       70.00       70.00       70.00       70.00       70.00       70.00       70.00       70.00       70.00    
        70.00       70.00       70.00       70.00       70.00       70.00       70.00       70.00       70.00       70.00    
        70.00       70.00       70.00       70.00    
  13    70.00       70.00       70.00       70.00       70.00       70.00       70.00       70.00       70.00       70.00    
        70.00       70.00       70.00       70.00       70.00       70.00       70.00       70.00       70.00       70.00    
        70.00       70.00       70.00       70.00    
  14    70.00       70.00       70.00       70.00       70.00       70.00       70.00       70.00       70.00       70.00    
        70.00       70.00       70.00       70.00       70.00       70.00       70.00       70.00       70.00       70.00    
        70.00       70.00       70.00       70.00    
  15    70.00       70.00       70.00       70.00       70.00       70.00       70.00       70.00       70.00       70.00    
        70.00       70.00       70.00       70.00       70.00       70.00       70.00       70.00       70.00       70.00    
        70.00       70.00       70.00       70.00    
  16    70.00       70.00       70.00       70.00       70.00       70.00       70.00       70.00       70.00       70.00    
        70.00       70.00       70.00       70.00       70.00       70.00       70.00       70.00       70.00       70.00    
        70.00       70.00       70.00       70.00    
  17    70.00       70.00       70.00       70.00       70.00       70.00       70.00       70.00       70.00       70.00    
        70.00       70.00       70.00       70.00       70.00       70.00       70.00       70.00       70.00       70.00    
        70.00       70.00       70.00       70.00    
  18    70.00       70.00       70.00       70.00       70.00       70.00       70.00       70.00       70.00       70.00    
        70.00       70.00       70.00       70.00       70.00       70.00       70.00       70.00       70.00       70.00    
        70.00       70.00       70.00       70.00    
  19    70.00       70.00       70.00       70.00       70.00       70.00       70.00       70.00       70.00       70.00    
        70.00       70.00       70.00       70.00       70.00       70.00       70.00       70.00       70.00       70.00    
        70.00       70.00       70.00       70.00    
  20    70.00       70.00       70.00       70.00       70.00       70.00       70.00       70.00       70.00       70.00    
        70.00       70.00       70.00       70.00       70.00       70.00       70.00       70.00       70.00       70.00    
        70.00       70.00       70.00       70.00    
  21    70.00       70.00       70.00       70.00       70.00       70.00       70.00       70.00       70.00       70.00    
        70.00       70.00       70.00       70.00       70.00       70.00       70.00       70.00       70.00       70.00    
        70.00       70.00       70.00       70.00    
  22    70.00       70.00       70.00       70.00       70.00       70.00       70.00       70.00       70.00       70.00    
        70.00       70.00       70.00       70.00       70.00       70.00       70.00       70.00       70.00       70.00    
        70.00       70.00       70.00       70.00    
  23    70.00       70.00       70.00       70.00       70.00       70.00       70.00       70.00       70.00       70.00    
        70.00       70.00       70.00       70.00       70.00       70.00       70.00       70.00       70.00       70.00    
        70.00       70.00       70.00       70.00    
  24    70.00       70.00       70.00       70.00       70.00       70.00       70.00       70.00       70.00       70.00    
        70.00       70.00       70.00       70.00       70.00       70.00       70.00       70.00       70.00       70.00    
        70.00       70.00       70.00       70.00    
  25    70.00       70.00       70.00       70.00       70.00       70.00       70.00       70.00       70.00       70.00    
        70.00       70.00       70.00       70.00       70.00       70.00       70.00       70.00       70.00       70.00    
        70.00       70.00       70.00       70.00    
  26    70.00       70.00       70.00       70.00       70.00       70.00       70.00       70.00       70.00       70.00    
        70.00       70.00       70.00       70.00       70.00       70.00       70.00       70.00       70.00       70.00    
        70.00       70.00       70.00       70.00    
  27    70.00       70.00       70.00       70.00       70.00       70.00       70.00       70.00       70.00       70.00    
        70.00       70.00       70.00       70.00       70.00       70.00       70.00       70.00       70.00       70.00    
        70.00       70.00       70.00       70.00    
  28    70.00       70.00       70.00       70.00       70.00       70.00       70.00       70.00       70.00       70.00    
        70.00       70.00       70.00       70.00       70.00       70.00       70.00       70.00       70.00       70.00    
        70.00       70.00       70.00       70.00    
  29    70.00       70.00       70.00       70.00       70.00       70.00       70.00       70.00       70.00       70.00    
        70.00       70.00       70.00       70.00       70.00       70.00       70.00       70.00       70.00       70.00    
        70.00       70.00       70.00       70.00    
  30    70.00       70.00       70.00       70.00       70.00       70.00       70.00       70.00       70.00       70.00    
        70.00       70.00       70.00       70.00       70.00       70.00       70.00       70.00       70.00       70.00    
        70.00       70.00       70.00       70.00    
  31    70.00       70.00       70.00       70.00       70.00       70.00       70.00       70.00       70.00       70.00    
        70.00       70.00       70.00       70.00       70.00       70.00       70.00       70.00       70.00       70.00    
        70.00       70.00       70.00       70.00    
  32    70.00       70.00       70.00       70.00       70.00       70.00       70.00       70.00       70.00       70.00    
        70.00       70.00       70.00       70.00       70.00       70.00       70.00       70.00       70.00       70.00    
        70.00       70.00       70.00       70.00    
  33    70.00       70.00       70.00       70.00       70.00       70.00       70.00       70.00       70.00       70.00    
        70.00       70.00       70.00       70.00       70.00       70.00       70.00       70.00       70.00       70.00    
        70.00       70.00       70.00       70.00    

 DEFAULT OUTPUT CONTROL
 THE FOLLOWING OUTPUT COMES AT THE END OF EACH STRESS PERIOD:
 TOTAL VOLUMETRIC BUDGET
           HEAD

 BCF -- BLOCK-CENTERED FLOW PACKAGE, VERSION 7, 5/2/2005
         INPUT READ FROM UNIT 23
 STEADY-STATE SIMULATION
 HEAD AT CELLS THAT CONVERT TO DRY=   0.0000    
 WETTING CAPABILITY IS ACTIVE
 WETTING FACTOR=   1.00000     WETTING ITERATION INTERVAL=   1
 FLAG THAT SPECIFIES THE EQUATION TO USE FOR HEAD AT WETTED CELLS=   0
      LAYER  LAYER-TYPE CODE     INTERBLOCK T
      --------------------------------------------
         1            0          0 -- HARMONIC    

 COLUMN TO ROW ANISOTROPY =   1.00000    

     TRANSMIS. ALONG ROWS =   50.0000     FOR LAYER   1
1
                            STRESS PERIOD NO.    1, LENGTH =   1000.000    
                            -----------------------------------------------

                              NUMBER OF TIME STEPS =     1

                               MULTIPLIER FOR DELT =     1.000

                            INITIAL TIME STEP SIZE =   1000.000    

Flows at Managed Wells for Stress Period    1

 Well no.  Layer   Row   Col   Stress Rate
 ----------------------------------------------------
        1      1     8    11   -1055.608416316462    
        2      1     8    17   -97.60975479647391    
        3      1    11    14    0.000000000000000    
        4      1    14    11   -769.6632162452638    
        5      1    14    17    0.000000000000000    
        6      1    20    20    0.000000000000000    
        7      1    26    17   -930.8717139916284    
 ----------------------------------------------------
                      Total:   -2853.753101349828    
 
 SOLVING FOR HEAD 


     8 CALLS TO PCG ROUTINE FOR TIME STEP   1 IN STRESS PERIOD    1
    35 TOTAL ITERATIONS


     7 CALLS TO PCG ROUTINE FOR TIME STEP   1 IN STRESS PERIOD    1
    30 TOTAL ITERATIONS


     7 CALLS TO PCG ROUTINE FOR TIME STEP   1 IN STRESS PERIOD    1
    29 TOTAL ITERATIONS


     6 CALLS TO PCG ROUTINE FOR TIME STEP   1 IN STRESS PERIOD    1
    26 TOTAL ITERATIONS


     6 CALLS TO PCG ROUTINE FOR TIME STEP   1 IN STRESS PERIOD    1
    25 TOTAL ITERATIONS


     6 CALLS TO PCG ROUTINE FOR TIME STEP   1 IN STRESS PERIOD    1
    26 TOTAL ITERATIONS


     6 CALLS TO PCG ROUTINE FOR TIME STEP   1 IN STRESS PERIOD    1
    25 TOTAL ITERATIONS


     6 CALLS TO PCG ROUTINE FOR TIME STEP   1 IN STRESS PERIOD    1
    23 TOTAL ITERATIONS


     6 CALLS TO PCG ROUTINE FOR TIME STEP   1 IN STRESS PERIOD    1
    23 TOTAL ITERATIONS


     5 CALLS TO PCG ROUTINE FOR TIME STEP   1 IN STRESS PERIOD    1
    21 TOTAL ITERATIONS


     5 CALLS TO PCG ROUTINE FOR TIME STEP   1 IN STRESS PERIOD    1
    21 TOTAL ITERATIONS


     5 CALLS TO PCG ROUTINE FOR TIME STEP   1 IN STRESS PERIOD    1
    21 TOTAL ITERATIONS


     5 CALLS TO PCG ROUTINE FOR TIME STEP   1 IN STRESS PERIOD    1
    19 TOTAL ITERATIONS


     5 CALLS TO PCG ROUTINE FOR TIME STEP   1 IN STRESS PERIOD    1
    18 TOTAL ITERATIONS


     5 CALLS TO PCG ROUTINE FOR TIME STEP   1 IN STRESS PERIOD    1
    18 TOTAL ITERATIONS


     5 CALLS TO PCG ROUTINE FOR TIME STEP   1 IN STRESS PERIOD    1
    18 TOTAL ITERATIONS


     4 CALLS TO PCG ROUTINE FOR TIME STEP   1 IN STRESS PERIOD    1
    16 TOTAL ITERATIONS


     4 CALLS TO PCG ROUTINE FOR TIME STEP   1 IN STRESS PERIOD    1
    16 TOTAL ITERATIONS


     4 CALLS TO PCG ROUTINE FOR TIME STEP   1 IN STRESS PERIOD    1
    15 TOTAL ITERATIONS


     4 CALLS TO PCG ROUTINE FOR TIME STEP   1 IN STRESS PERIOD    1
    14 TOTAL ITERATIONS


     4 CALLS TO PCG ROUTINE FOR TIME STEP   1 IN STRESS PERIOD    1
    14 TOTAL ITERATIONS


     4 CALLS TO PCG ROUTINE FOR TIME STEP   1 IN STRESS PERIOD    1
    13 TOTAL ITERATIONS


     3 CALLS TO PCG ROUTINE FOR TIME STEP   1 IN STRESS PERIOD    1
    11 TOTAL ITERATIONS


     3 CALLS TO PCG ROUTINE FOR TIME STEP   1 IN STRESS PERIOD    1
    11 TOTAL ITERATIONS


     3 CALLS TO PCG ROUTINE FOR TIME STEP   1 IN STRESS PERIOD    1
    11 TOTAL ITERATIONS


     3 CALLS TO PCG ROUTINE FOR TIME STEP   1 IN STRESS PERIOD    1
    11 TOTAL ITERATIONS
1
              HEAD IN LAYER   1 AT END OF TIME STEP   1 IN STRESS PERIOD    1
  ---------------------------------------------------------------------------

            1           2           3           4           5           6           7           8           9          10
           11          12          13          14          15          16          17          18          19          20
           21          22          23          24
 ........................................................................................................................
   1    57.69       56.92       56.16       55.41       54.67       53.97       53.30       52.67       52.12       51.65    
        51.26       51.00       50.82       50.72       50.71       50.75       50.82       50.94       51.09       51.25    
        51.44       51.63       51.83       52.04    
   2    57.47       56.67       55.87       55.07       54.29       53.53       52.80       52.11       51.50       50.98    
        50.59       50.32       50.18       50.13       50.16       50.25       50.39       50.55       50.74       50.95    
        51.17       51.39       51.62       51.86    
   3    57.26       56.42       55.58       54.73       53.89       53.06       52.25       51.48       50.78       50.20    
        49.78       49.53       49.43       49.46       49.56       49.72       49.92       50.14       50.38       50.64    
        50.90       51.16       51.42       51.67    
   4    57.05       56.17       55.29       54.39       53.48       52.56       51.65       50.77       49.96       49.27    
        48.79       48.57       48.57       48.70       48.90       49.15       49.42       49.71       50.01       50.32    
        50.62       50.92       51.21       51.49    
   5    56.85       55.94       55.01       54.05       53.07       52.06       51.03       50.00       49.00       48.12    
        47.53       47.41       47.58       47.88       48.21       48.55       48.89       49.26       49.64       50.00    
        50.35       50.69       51.01       51.32    
   6    56.68       55.73       54.75       53.74       52.68       51.58       50.42       49.20       47.92       46.69    
        45.81       45.96       46.47       47.01       47.50       47.94       48.35       48.81       49.27       49.70    
        50.10       50.47       50.82       51.15    
   7    56.52       55.54       54.53       53.47       52.35       51.16       49.87       48.44       46.80       44.90    
        43.06       44.16       45.31       46.20       46.86       47.36       47.76       48.37       48.93       49.42    
        49.87       50.27       50.65       51.00    
   8    56.40       55.39       54.35       53.25       52.09       50.84       49.47       47.89       45.93       43.05    
        37.36       42.30       44.42       45.61       46.38       46.87       46.97       47.97       48.65       49.20    
        49.68       50.11       50.50       50.87    
   9    56.31       55.29       54.22       53.10       51.92       50.65       49.26       47.73       45.99       44.02    
        42.14       43.26       44.47       45.43       46.18       46.76       47.23       47.90       48.51       49.05    
        49.53       49.97       50.38       50.76    
  10    56.26       55.23       54.15       53.02       51.83       50.56       49.21       47.78       46.29       44.89    
        43.92       44.12       44.76       45.48       46.15       46.75       47.30       47.88       48.44       48.96    
        49.43       49.87       50.28       50.67    
  11    56.24       55.21       54.13       53.00       51.82       50.56       49.24       47.87       46.51       45.31    
        44.55       44.54       44.98       45.58       46.19       46.78       47.34       47.89       48.41       48.91    
        49.37       49.80       50.21       50.60    
  12    56.27       55.24       54.17       53.04       51.87       50.63       49.32       47.95       46.57       45.29    
        44.43       44.52       45.03       45.65       46.27       46.85       47.40       47.92       48.41       48.88    
        49.33       49.76       50.16       50.55    
  13    56.33       55.31       54.25       53.14       51.98       50.76       49.45       48.05       46.52       44.87    
        43.34       44.08       44.96       45.73       46.38       46.95       47.48       47.97       48.44       48.89    
        49.32       49.73       50.13       50.51    
  14    56.42       55.42       54.38       53.30       52.16       50.97       49.69       48.28       46.61       44.30    
        40.00       43.51       45.02       45.91       46.56       47.11       47.59       48.05       48.49       48.91    
        49.32       49.72       50.11       50.48    
  15    56.55       55.56       54.55       53.50       52.41       51.27       50.06       48.76       47.33       45.74    
        44.24       44.92       45.70       46.33       46.86       47.32       47.74       48.15       48.55       48.94    
        49.33       49.72       50.10       50.47    
  16    56.70       55.74       54.76       53.74       52.70       51.63       50.52       49.37       48.21       47.10    
        46.28       46.25       46.52       46.87       47.22       47.56       47.91       48.26       48.61       48.98    
        49.35       49.72       50.09       50.46    
  17    56.87       55.94       54.99       54.02       53.03       52.03       51.01       50.00       49.03       48.16    
        47.54       47.28       47.27       47.39       47.58       47.81       48.07       48.36       48.67       49.01    
        49.36       49.72       50.09       50.46    
  18    57.07       56.16       55.24       54.31       53.38       52.43       51.50       50.59       49.74       48.99    
        48.42       48.06       47.89       47.85       47.90       48.02       48.20       48.43       48.71       49.02    
        49.36       49.72       50.09       50.46    
  19    57.27       56.39       55.51       54.62       53.72       52.84       51.96       51.13       50.34       49.65    
        49.09       48.66       48.38       48.22       48.15       48.17       48.28       48.46       48.71       49.01    
        49.35       49.71       50.08       50.46    
  20    57.49       56.63       55.78       54.92       54.07       53.22       52.40       51.60       50.86       50.19    
        49.61       49.13       48.75       48.48       48.31       48.24       48.28       48.42       48.66       48.97    
        49.32       49.69       50.08       50.46    
  21    57.71       56.88       56.05       55.22       54.40       53.59       52.79       52.03       51.30       50.63    
        50.02       49.49       49.03       48.65       48.37       48.20       48.17       48.29       48.54       48.87    
        49.26       49.66       50.07       50.47    
  22    57.93       57.13       56.32       55.52       54.72       53.94       53.16       52.42       51.70       51.01    
        50.37       49.77       49.22       48.72       48.31       48.02       47.92       48.04       48.34       48.73    
        49.17       49.62       50.06       50.49    
  23    58.16       57.37       56.59       55.81       55.03       54.27       53.51       52.77       52.05       51.35    
        50.67       50.00       49.35       48.72       48.13       47.65       47.43       47.61       48.04       48.55    
        49.08       49.59       50.07       50.52    
  24    58.38       57.62       56.85       56.09       55.34       54.59       53.85       53.11       52.39       51.67    
        50.95       50.22       49.46       48.66       47.83       47.04       46.55       46.95       47.64       48.35    
        49.00       49.59       50.11       50.59    
  25    58.61       57.86       57.11       56.37       55.63       54.90       54.17       53.45       52.72       51.99    
        51.24       50.46       49.61       48.65       47.50       46.12       44.77       45.98       47.22       48.21    
        49.00       49.65       50.20       50.69    
  26    58.83       58.10       57.37       56.65       55.93       55.21       54.49       53.78       53.06       52.33    
        51.57       50.76       49.87       48.81       47.41       45.17       40.42       45.00       47.06       48.28    
        49.13       49.80       50.36       50.84    
  27    59.05       58.34       57.63       56.92       56.22       55.52       54.82       54.12       53.41       52.69    
        51.95       51.16       50.30       49.32       48.15       46.74       45.35       46.54       47.74       48.70    
        49.45       50.07       50.59       51.05    
  28    59.27       58.57       57.88       57.19       56.50       55.82       55.14       54.46       53.77       53.08    
        52.37       51.63       50.85       50.01       49.13       48.28       47.72       48.05       48.68       49.32    
        49.90       50.42       50.89       51.30    
  29    59.48       58.80       58.12       57.45       56.79       56.12       55.46       54.81       54.15       53.49    
        52.82       52.14       51.45       50.76       50.09       49.52       49.20       49.28       49.59       50.00    
        50.43       50.84       51.23       51.59    
  30    59.69       59.03       58.37       57.71       57.07       56.42       55.79       55.15       54.52       53.90    
        53.28       52.66       52.05       51.47       50.95       50.53       50.28       50.26       50.41       50.66    
        50.96       51.28       51.59       51.90    
  31    59.90       59.25       58.60       57.97       57.34       56.72       56.10       55.50       54.90       54.31    
        53.73       53.17       52.63       52.13       51.70       51.35       51.14       51.07       51.13       51.28    
        51.48       51.72       51.97       52.22    
  32    60.10       59.46       58.83       58.21       57.60       57.00       56.41       55.83       55.26       54.71    
        54.17       53.66       53.17       52.73       52.35       52.05       51.85       51.76       51.76       51.84    
        51.97       52.14       52.33       52.54    
  33    60.29       59.67       59.06       58.45       57.86       57.28       56.71       56.15       55.61       55.09    
        54.58       54.11       53.67       53.27       52.93       52.66       52.45       52.35       52.31       52.34    
        52.42       52.54       52.69       52.86    
1
  VOLUMETRIC BUDGET FOR ENTIRE MODEL AT END OF TIME STEP    1, STRESS PERIOD   1
  ------------------------------------------------------------------------------

     CUMULATIVE VOLUMES      L**3       RATES FOR THIS TIME STEP      L**3/T
     ------------------                 ------------------------

           IN:                                      IN:
           ---                                      ---
             STORAGE =           0.0000               STORAGE =           0.0000
       CONSTANT HEAD =           0.0000         CONSTANT HEAD =           0.0000
       MANAGED WELLS =           0.0000         MANAGED WELLS =           0.0000
     GHOST-NODE HEAD =     2853753.1009       GHOST-NODE HEAD =        2853.7531

            TOTAL IN =     2853753.1009              TOTAL IN =        2853.7531

          OUT:                                     OUT:
          ----                                     ----
             STORAGE =           0.0000               STORAGE =           0.0000
       CONSTANT HEAD =           0.0000         CONSTANT HEAD =           0.0000
       MANAGED WELLS =     2853753.1013         MANAGED WELLS =        2853.7531
     GHOST-NODE HEAD =           0.0000       GHOST-NODE HEAD =           0.0000

           TOTAL OUT =     2853753.1013             TOTAL OUT =        2853.7531

            IN - OUT =      -4.2789E-04              IN - OUT =      -4.2789E-07

 PERCENT DISCREPANCY =           0.00     PERCENT DISCREPANCY =           0.00






         TIME SUMMARY AT END OF TIME STEP    1 IN STRESS PERIOD    1
                    SECONDS     MINUTES      HOURS       DAYS        YEARS
                    -----------------------------------------------------------
   TIME STEP LENGTH 8.64000E+07 1.44000E+06  24000.      1000.0      2.7379    
 STRESS PERIOD TIME 8.64000E+07 1.44000E+06  24000.      1000.0      2.7379    
         TOTAL TIME 8.64000E+07 1.44000E+06  24000.      1000.0      2.7379    
1
1
  FLUX ACROSS PARENT-CHILD INTERFACE AT TIME STEP  1 IN STRESS PERIOD    1
  ------------------------------------------------------------------------
 G-N FLUX        PARENT        CHILD         DIFFERENCE      % DIFFERENCE
  RATE IN:      2.8538E+03    2.8538E+03    -4.8129E-07        0.0000
 RATE OUT:      0.0000E+00    0.0000E+00     0.0000E+00        0.0000

 Run end date and time (yyyy/mm/dd hh:mm:ss): 2013/09/18  8:07:49
 Elapsed run time:  0.656 Seconds

