
                                  MODFLOW-LGR      
    U.S. GEOLOGICAL SURVEY MODULAR FINITE-DIFFERENCE GROUND-WATER FLOW MODEL
                 Version GWM2005 1.2 120709,FROM MF-LGR V1.1.02  



 OPENING GWM FILE FOR GWM1 -- GROUND-WATER MANAGEMENT PROCESS
 PARENT GRID INPUT READ FROM UNIT  15
 #DEWATER-LGR Sample Problem, parent GWM file                                                                                                                                                            

 OPENING GWM FILE CHILD GRID - INPUT READ FROM UNIT  25
 #DEWATER-LGR Sample Problem, child GWM file                                                                                                                                                             

 OPENING DECISION-VARIABLE FILE ON UNIT   16:
 ..\data\DEWATER-LGR\deworg3_chd.decvar                                                                                                                                                                  
 #DEWATER-LGR Sample Problem, DECVAR file

 NO. OF FLOW-RATE DECISION VARIABLES (NFVAR)       7
 NO. OF EXTERNAL DECISION VARIABLES (NEVAR):       0
 BINARY VARIABLES ARE NOT ACTIVE.

 FLOW-RATE VARIABLES:
                                                       FRACTION
  NUMBER     NAME       TYPE      LAY   ROW   COL       OF FLOW
 --------------------------------------------------------------
  FLOW-RATE VARIABLES READ FROM FILE: ..\data\DEWATER-LGR\deworg3_chd.decvar                                                                                  

    1      Q1         WITHDRAWAL     1   10   13    1.00000000
   AVAILABLE IN STRESS PERIODS: 1                                                                                                                       

    2      Q2         WITHDRAWAL     1   10   19    1.00000000
   AVAILABLE IN STRESS PERIODS: 1                                                                                                                       

    3      Q3         WITHDRAWAL     1   13   16    1.00000000
   AVAILABLE IN STRESS PERIODS: 1                                                                                                                       

    4      Q4         WITHDRAWAL     1   16   13    1.00000000
   AVAILABLE IN STRESS PERIODS: 1                                                                                                                       

    5      Q5         WITHDRAWAL     1   16   19    1.00000000
   AVAILABLE IN STRESS PERIODS: 1                                                                                                                       

    6      Q6         WITHDRAWAL     1   22   22    1.00000000
   AVAILABLE IN STRESS PERIODS: 1                                                                                                                       

    7      Q7         WITHDRAWAL     1   28   19    1.00000000
   AVAILABLE IN STRESS PERIODS: 1                                                                                                                       


      582 BYTES OF MEMORY ALLOCATED TO STORE DATA FOR DECISION VARIABLES

 CLOSING DECISION-VARIABLE FILE


 OPENING OBJECTIVE-FUNCTION FILE ON UNIT   16:
 ..\data\DEWATER-LGR\deworg3_par.objfnc                                                                                                                                                                  
 #DEWATER-LGR Sample Problem, OBJFNC file

 OBJECTIVE TYPE: MIN   FUNCTION TYPE: WSDV

 NO. OF FLOW-RATE DECISION VARIABLES IN OBJECTIVE FUNCTION (NFVOBJ):    7
 NO. OF EXTERNAL DECISION VARIABLES IN OBJECTIVE FUNCTION (NEVOBJ):     0
 NO. OF BINARY DECISION VARIABLES IN OBJECTIVE FUNCTION (NBVOBJ):       0

 OBJECTIVE FUNCTION: (excluding flow duration terms)

 MIN    +  1.00E+00 Q1         +  1.00E+00 Q2         +  1.00E+00 Q3        
        +  1.00E+00 Q4         +  1.00E+00 Q5         +  1.00E+00 Q6        
        +  1.00E+00 Q7        

       28 BYTES OF MEMORY ALLOCATED TO STORE DATA FOR OBJECTIVE-FUNCTION

 CLOSING OBJECTIVE-FUNCTION FILE


 OPENING DECISION-VARIABLE CONSTRAINTS FILE ON UNIT   16:
 ..\data\DEWATER-LGR\deworg3_chd.varcon                                                                                                                                                                  
 #DEWATER-LGR Sample Problem, VARCON file

 FLOW RATE VARIABLES:
                        MINIMUM        MAXIMUM        REFERENCE
  NUMBER   NAME         FLOW RATE      FLOW RATE      FLOW RATE
----------------------------------------------------------------
    1      Q1           0.000E+00      2.000E+04      0.000E+00
    2      Q2           0.000E+00      2.000E+04      0.000E+00
    3      Q3           0.000E+00      2.000E+04      0.000E+00
    4      Q4           0.000E+00      2.000E+04      0.000E+00
    5      Q5           0.000E+00      2.000E+04      0.000E+00
    6      Q6           0.000E+00      2.000E+04      0.000E+00
    7      Q7           0.000E+00      2.000E+04      0.000E+00

 CLOSING DECISION-VARIABLE CONSTRAINTS FILE


 OPENING HEAD CONSTRAINTS FILE ON UNIT   16:
 ..\data\DEWATER-LGR\deworg3_chd.hedcon                                                                                                                                                                  
 #DEWATER-LGR Sample Problem, HEDCON file

 HEAD CONSTRAINTS:
                                           RIGHT-HAND    STRESS
 NUMBER  NAME        LAY  ROW  COL  TYPE      SIDE       PERIOD
 ---------------------------------------------------------------
  HEAD CONSTRAINTS READ FROM FILE: ..\data\DEWATER-LGR\deworg3_chd.hedcon                                                                                  
     1   b-01          1    7   10   <    5.0000E+01         1
     2   b-02          1    7   16   <    5.0000E+01         1
     3   b-03          1    7   22   <    5.0000E+01         1
     4   b-04          1   13   10   <    5.0000E+01         1
     5   b-05          1   13   22   <    5.0000E+01         1
     6   b-06          1   19   10   <    5.0000E+01         1
     7   b-07          1   19   16   <    5.0000E+01         1
     8   b-08          1   22   19   <    5.0000E+01         1
     9   b-09          1   31   19   <    5.0000E+01         1
    10   b-10          1   31   22   <    5.0000E+01         1

      700 BYTES OF MEMORY ALLOCATED TO STORE DATA FOR HEAD CONSTRAINTS

 CLOSING HEAD CONSTRAINTS FILE


 OPENING SOLUTION FILE ON UNIT   16:
 ..\data\DEWATER-LGR\deworg3_par.soln                                                                                                                                                                    
 #DEWATER-LGR Sample Problem, SOLN file
 #June, 2009

 SOLNTYP IS LP: GWM WILL COMPLETE A SINGLE ITERATION OF THE LINEAR PROBLEM.

 IRM EQUALS 2: RESPONSE MATRIX WILL BE CALCULATED BY GWM
 BUT NOT WRITTEN TO FILE

 MAXIMUM NUMBER OF LP ITERATIONS:               1000
 MAXIMUM NUMBER OF BRANCH AND BOUND ITER:       2000

 PERTURBATION VALUE:                          0.50D+00

 MAXIMUM NUMBER OF PERTURBATION ATTEMPTS:         10
 PERTURBATION ADJUSTMENT FACTOR (PGFACT):    0.50000

 OUTPUT FROM BRANCH-AND-BOUND ALGORITHM WILL NOT BE PRINTED.

 CRITMFC SET TO                               0.000D+00
 GWM WILL ACCEPT FLOW PROCESS RESULTS THAT MEET GWF
 CONVERGENCE CRITERIA

 BASE PUMPING RATES TAKEN FROM FVREF SPECIFIED IN VARCON INPUT FILE
 
     PROBLEM SIZE
 
  NUMBER OF VARIABLES (INCLUDING SLACKS)          17
  NUMBER OF CONSTRAINT EQUATIONS                  10
 

     6439 BYTES OF MEMORY ALLOCATED FOR RESPONSE MATRIX ALGORITHM

 CLOSING SOLUTION AND OUTPUT FILE

---------------------------------------------------------------
               Solution Algorithm
---------------------------------------------------------------
  Begin Solution Algorithm
    Running Base Flow Process Simulation
      Status of Simulation-Based Constraints 
      Constraint Type        Name     Status     Distance To RHS
      ---------------        ----     ------     ---------------
      Head Bound             b-01     Not Met         2.1724E+01
      Head Bound             b-02     Not Met         2.0345E+01
      Head Bound             b-03     Not Met         1.8966E+01
      Head Bound             b-04     Not Met         2.1724E+01
      Head Bound             b-05     Not Met         1.8966E+01
      Head Bound             b-06     Not Met         2.1724E+01
      Head Bound             b-07     Not Met         2.0345E+01
      Head Bound             b-08     Not Met         1.9655E+01
      Head Bound             b-09     Not Met         1.9655E+01
      Head Bound             b-10     Not Met         1.8966E+01

  Distance to RHS is the absolute value of the difference between the
    the right hand side of the constraint and the left side of the
    constraint evaluated using the current set of decision variable values.
    
    Calculating Response Matrix
      Perturb Flow Variable    1
       By Perturbation Value: -1.000000E+04
      Perturb Flow Variable    2
       By Perturbation Value: -1.000000E+04
      Perturb Flow Variable    3
       By Perturbation Value: -1.000000E+04
      Perturb Flow Variable    4
       By Perturbation Value: -1.000000E+04
      Perturb Flow Variable    5
       By Perturbation Value: -1.000000E+04
      Perturb Flow Variable    6
       By Perturbation Value: -1.000000E+04
      Perturb Flow Variable    7
       By Perturbation Value: -1.000000E+04
 
      Average Number of Significant Digits in Matrix  1.012857E+01
    
    Solving Linear Program
    Feasible Solution Found
  Optimal Solution Found

----------------------------------------------------------------------
               Ground-Water Management Solution
----------------------------------------------------------------------

       OPTIMAL SOLUTION FOUND 

       OPTIMAL RATES FOR EACH FLOW VARIABLE 
       ---------------------------------------
Variable           Withdrawal          Injection           Contribution
Name               Rate                Rate                To Objective
----------         --------------      ------------        ------------
 Q1                1.060102E+03                            1.060102E+06
 Q2                9.601209E+01                            9.601209E+04
 Q3                0.000000E+00                            0.000000E+00
 Q4                7.685991E+02                            7.685991E+05
 Q5                0.000000E+00                            0.000000E+00
 Q6                0.000000E+00                            0.000000E+00
 Q7                9.332532E+02                            9.332532E+05
                   ------------        ------------        ------------
TOTALS             2.857967E+03        0.000000E+00        2.857967E+06


       OBJECTIVE FUNCTION VALUE                            2.857967E+06

       BINDING CONSTRAINTS 
Constraint Type        Name     Status      Shadow Price
---------------        ----     ------      ------------
Head Bound             b-01     Binding     -2.7503E+04
Head Bound             b-03     Binding     -3.2484E+04
Head Bound             b-06     Binding     -3.1000E+04
Head Bound             b-10     Binding     -5.1196E+04

  Binding constraint and range analysis values are determined from the linear
    program and based on the response matrix approximation of the flow-process.
 
       RANGE ANALYSIS 


       Constraint Ranges

  Lower/Upper Bound are the values of the RHS beyond which basis will change.
    Leaving is the variable which will leave the basis. 
    Entering is the variable which will enter the basis.
    If the entering or leaving variable is a constraint name,
      then the constraint slack variable is active

Constraint                Original      Lower/Upper
Name        Slack         RHS           Bound            Entering    Leaving
----------  ----------    ----------    ----------       ----------  ----------
b-01        0.0000E+00    5.0000E+01    4.9324E+01       b-03        Q2        
                                        5.3295E+01       b-01        b-02      

b-02        2.1211E+00    5.0000E+01    4.7879E+01       b-01        b-02      
                                          Infinity       ----- No Change -----

b-03        0.0000E+00    5.0000E+01    4.2790E+01       b-01        Q1        
                                        5.0401E+01       b-03        Q2        

b-04        2.1336E+00    5.0000E+01    4.7866E+01       b-01        b-04      
                                          Infinity       ----- No Change -----

b-05        1.0920E+00    5.0000E+01    4.8908E+01       Q3          b-05      
                                          Infinity       ----- No Change -----

b-06        0.0000E+00    5.0000E+01    4.7572E+01       b-03        Q2        
                                        5.2733E+01       b-06        Q4        

b-07        2.6097E+00    5.0000E+01    4.7390E+01       Q3          b-07      
                                          Infinity       ----- No Change -----

b-08        1.7249E+00    5.0000E+01    4.8275E+01       Q6          b-08      
                                          Infinity       ----- No Change -----

b-09        7.9991E-01    5.0000E+01    4.9200E+01       b-10        b-09      
                                          Infinity       ----- No Change -----

b-10        0.0000E+00    5.0000E+01    4.6376E+01       b-03        Q2        
                                        5.0690E+01       b-10        b-09      



       Objective-Function Coefficient Ranges 

  Lower/Upper Bound are the values of the coefficients beyond which basis will change.
    Leaving is the variable which will leave the basis. 
    Entering is the variable which will enter the basis.
    If the entering or leaving variable is a constraint name,
      then the constraint slack variable is active
    Basic variables are shown with zero reduced cost

Variable    Reduced       Original      Lower/Upper
Name        Cost          Coefficient   Bound            Entering    Leaving
----------  ----------    ----------    ----------       ----------  ----------
Q1          0.0000E+00    1.0000E+03    9.0881E+02       b-01        Q2        
                                        1.0690E+03       Q3          Q2        

Q2          0.0000E+00    1.0000E+03    8.6434E+02       b-03        Q1        
                                        1.0465E+03       Q3          Q2        

Q3          1.6612E+01    1.0000E+03    9.8339E+02       Q3          Q2        
                                          Infinity       ----- No Change -----

Q4          0.0000E+00    1.0000E+03    8.8977E+02       b-06        Q2        
                                        1.0500E+03       Q3          Q2        

Q5          4.7908E+01    1.0000E+03    9.5209E+02       Q5          Q2        
                                          Infinity       ----- No Change -----

Q6          8.0376E+01    1.0000E+03    9.1962E+02       Q6          Q2        
                                          Infinity       ----- No Change -----

Q7          0.0000E+00    1.0000E+03    6.7027E+02       b-10        Q2        
                                        1.1422E+03       Q6          Q2        

---------------------------------------------------------------
         Final Flow Process Simulation
---------------------------------------------------------------
  Running Final Flow Process Simulation
    using Optimal Flow Variable Rates 
    
      Status of Simulation-Based Constraints 
        Using Optimal Flow Rate Variable Values
      Constraint Type        Name     Status     Distance To RHS
      ---------------        ----     ------     ---------------
      Head Bound             b-01     Near-Binding    2.8433E-05
      Head Bound             b-02     Satisfied       2.1211E+00
      Head Bound             b-03     Near-Binding    2.8561E-05
      Head Bound             b-04     Satisfied       2.1336E+00
      Head Bound             b-05     Satisfied       1.0919E+00
      Head Bound             b-06     Near-Binding    2.8785E-05
      Head Bound             b-07     Satisfied       2.6097E+00
      Head Bound             b-08     Satisfied       1.7249E+00
      Head Bound             b-09     Satisfied       7.9988E-01
      Head Bound             b-10     Near-Binding    2.9591E-05

  Distance to RHS is the absolute value of the difference between the
    the right hand side of the constraint and the left side of the
    constraint evaluated using the current set of decision variable values.
  Because of precision limitations and possible nonlinear behavior, 
    the status of binding constraints computed directly by the flow process 
    may differ slightly from those computed using the linear program.  
