                                  MODFLOW-LGR      
      U.S. GEOLOGICAL SURVEY MODULAR FINITE-DIFFERENCE GROUND-WATER FLOW MODEL
                 VERSION GWM2005 1.2.02 072710,FROM MF-LGR V1.2


     FINAL FLOW PROCESS SIMULATION FOR GWM                                                                                                                                                                   


 REWOUND ..\data\DEWATER-LGR\deworg1_chd.dis
 FILE TYPE:DIS   UNIT   21

 REWOUND ..\data\DEWATER-LGR\deworg1_chd.ba6
 FILE TYPE:BAS6   UNIT   22

 REWOUND ..\data\DEWATER-LGR\deworg1_chd.bc6
 FILE TYPE:BCF6   UNIT   23

 REWOUND ..\data\DEWATER-LGR\deworg1.pcg
 FILE TYPE:PCG   UNIT   24

 REWOUND ..\data\DEWATER-LGR\deworg1_chd.gwm
 FILE TYPE:GWM   UNIT   25

 BAS -- BASIC PACKAGE, VERSION 7, 5/2/2005 INPUT READ FROM UNIT   22

 DISCRETIZATION INPUT DATA READ FROM UNIT   21
 #DEWATER-LGR Sample Problem, child DIS file
 #December, 2007
    1 LAYERS        13 ROWS        10 COLUMNS
    1 STRESS PERIOD(S) IN SIMULATION
 MODEL TIME UNIT IS DAYS
 MODEL LENGTH UNIT IS UNDEFINED
  Confining bed flag for each layer:
   0

                     DELR =   100.000    

                     DELC =   100.000    

 TOP ELEVATION OF LAYER 1 =   100.000    

   MODEL LAYER BOTTOM EL. =   100.000     FOR LAYER   1


 STRESS PERIOD     LENGTH       TIME STEPS     MULTIPLIER FOR DELT    SS FLAG
 ----------------------------------------------------------------------------
        1         1000.000          1                    1.000         SS

 STEADY-STATE SIMULATION



 
 #DEWATER-LGR Sample Problem, child BAS6 for 13x10                               
 #December, 2007                                                                 
 THE FREE FORMAT OPTION HAS BEEN SELECTED



                     BOUNDARY ARRAY FOR LAYER   1
 READING ON UNIT   22 WITH FORMAT: (20I4)              

                1           2           3           4           5           6           7           8           9          10
 ............................................................................................................................
   1          -59         -59         -59         -59         -59         -59         -59         -59         -59         -59
   2          -59           1           1           1           1           1           1           1           1         -59
   3          -59           1           1           1           1           1           1           1           1         -59
   4          -59           1           1           1           1           1           1           1           1         -59
   5          -59           1           1           1           1           1           1           1           1         -59
   6          -59           1           1           1           1           1           1           1           1         -59
   7          -59           1           1           1           1           1           1           1           1         -59
   8          -59           1           1           1           1           1           1           1           1         -59
   9          -59           1           1           1           1           1           1           1           1         -59
  10          -59           1           1           1           1           1           1           1           1         -59
  11          -59           1           1           1           1           1           1           1           1         -59
  12          -59           1           1           1           1           1           1           1           1         -59
  13          -59         -59         -59         -59         -59         -59         -59         -59         -59         -59

 AQUIFER HEAD WILL BE SET TO  0.0000     AT ALL NO-FLOW NODES (IBOUND=0).



                       INITIAL HEAD FOR LAYER   1
 READING ON UNIT   22 WITH FORMAT: (10F13.0)           

            1           2           3           4           5           6           7           8           9          10
 ........................................................................................................................
   1    70.00       70.00       70.00       70.00       70.00       70.00       70.00       70.00       70.00       70.00    
   2    70.00       70.00       70.00       70.00       70.00       70.00       70.00       70.00       70.00       70.00    
   3    70.00       70.00       70.00       70.00       70.00       70.00       70.00       70.00       70.00       70.00    
   4    70.00       70.00       70.00       70.00       70.00       70.00       70.00       70.00       70.00       70.00    
   5    70.00       70.00       70.00       70.00       70.00       70.00       70.00       70.00       70.00       70.00    
   6    70.00       70.00       70.00       70.00       70.00       70.00       70.00       70.00       70.00       70.00    
   7    70.00       70.00       70.00       70.00       70.00       70.00       70.00       70.00       70.00       70.00    
   8    70.00       70.00       70.00       70.00       70.00       70.00       70.00       70.00       70.00       70.00    
   9    70.00       70.00       70.00       70.00       70.00       70.00       70.00       70.00       70.00       70.00    
  10    70.00       70.00       70.00       70.00       70.00       70.00       70.00       70.00       70.00       70.00    
  11    70.00       70.00       70.00       70.00       70.00       70.00       70.00       70.00       70.00       70.00    
  12    70.00       70.00       70.00       70.00       70.00       70.00       70.00       70.00       70.00       70.00    
  13    70.00       70.00       70.00       70.00       70.00       70.00       70.00       70.00       70.00       70.00    

 DEFAULT OUTPUT CONTROL
 THE FOLLOWING OUTPUT COMES AT THE END OF EACH STRESS PERIOD:
 TOTAL VOLUMETRIC BUDGET
           HEAD

 BCF -- BLOCK-CENTERED FLOW PACKAGE, VERSION 7, 5/2/2005
         INPUT READ FROM UNIT 23
 STEADY-STATE SIMULATION
 HEAD AT CELLS THAT CONVERT TO DRY=   0.0000    
 WETTING CAPABILITY IS ACTIVE
 WETTING FACTOR=   1.00000     WETTING ITERATION INTERVAL=   1
 FLAG THAT SPECIFIES THE EQUATION TO USE FOR HEAD AT WETTED CELLS=   0
      LAYER  LAYER-TYPE CODE     INTERBLOCK T
      --------------------------------------------
         1            0          0 -- HARMONIC    

 COLUMN TO ROW ANISOTROPY =   1.00000    

     TRANSMIS. ALONG ROWS =   50.0000     FOR LAYER   1
1
                            STRESS PERIOD NO.    1, LENGTH =   1000.000    
                            -----------------------------------------------

                              NUMBER OF TIME STEPS =     1

                               MULTIPLIER FOR DELT =     1.000

                            INITIAL TIME STEP SIZE =   1000.000    
 
 SOLVING FOR HEAD 


     1 CALLS TO PCG ROUTINE FOR TIME STEP   1 IN STRESS PERIOD    1
     1 TOTAL ITERATIONS


     4 CALLS TO PCG ROUTINE FOR TIME STEP   1 IN STRESS PERIOD    1
    16 TOTAL ITERATIONS


     1 CALLS TO PCG ROUTINE FOR TIME STEP   1 IN STRESS PERIOD    1
     1 TOTAL ITERATIONS


     4 CALLS TO PCG ROUTINE FOR TIME STEP   1 IN STRESS PERIOD    1
    16 TOTAL ITERATIONS


     1 CALLS TO PCG ROUTINE FOR TIME STEP   1 IN STRESS PERIOD    1
     1 TOTAL ITERATIONS


     4 CALLS TO PCG ROUTINE FOR TIME STEP   1 IN STRESS PERIOD    1
    16 TOTAL ITERATIONS


     1 CALLS TO PCG ROUTINE FOR TIME STEP   1 IN STRESS PERIOD    1
     1 TOTAL ITERATIONS


     4 CALLS TO PCG ROUTINE FOR TIME STEP   1 IN STRESS PERIOD    1
    16 TOTAL ITERATIONS


     1 CALLS TO PCG ROUTINE FOR TIME STEP   1 IN STRESS PERIOD    1
     1 TOTAL ITERATIONS


     4 CALLS TO PCG ROUTINE FOR TIME STEP   1 IN STRESS PERIOD    1
    16 TOTAL ITERATIONS


     1 CALLS TO PCG ROUTINE FOR TIME STEP   1 IN STRESS PERIOD    1
     1 TOTAL ITERATIONS


     4 CALLS TO PCG ROUTINE FOR TIME STEP   1 IN STRESS PERIOD    1
    16 TOTAL ITERATIONS


     1 CALLS TO PCG ROUTINE FOR TIME STEP   1 IN STRESS PERIOD    1
     1 TOTAL ITERATIONS


     4 CALLS TO PCG ROUTINE FOR TIME STEP   1 IN STRESS PERIOD    1
    16 TOTAL ITERATIONS


     1 CALLS TO PCG ROUTINE FOR TIME STEP   1 IN STRESS PERIOD    1
     1 TOTAL ITERATIONS


     4 CALLS TO PCG ROUTINE FOR TIME STEP   1 IN STRESS PERIOD    1
    15 TOTAL ITERATIONS


     1 CALLS TO PCG ROUTINE FOR TIME STEP   1 IN STRESS PERIOD    1
     1 TOTAL ITERATIONS


     4 CALLS TO PCG ROUTINE FOR TIME STEP   1 IN STRESS PERIOD    1
    15 TOTAL ITERATIONS


     1 CALLS TO PCG ROUTINE FOR TIME STEP   1 IN STRESS PERIOD    1
     1 TOTAL ITERATIONS


     4 CALLS TO PCG ROUTINE FOR TIME STEP   1 IN STRESS PERIOD    1
    14 TOTAL ITERATIONS


     1 CALLS TO PCG ROUTINE FOR TIME STEP   1 IN STRESS PERIOD    1
     1 TOTAL ITERATIONS


     4 CALLS TO PCG ROUTINE FOR TIME STEP   1 IN STRESS PERIOD    1
    14 TOTAL ITERATIONS


     1 CALLS TO PCG ROUTINE FOR TIME STEP   1 IN STRESS PERIOD    1
     1 TOTAL ITERATIONS


     4 CALLS TO PCG ROUTINE FOR TIME STEP   1 IN STRESS PERIOD    1
    14 TOTAL ITERATIONS


     1 CALLS TO PCG ROUTINE FOR TIME STEP   1 IN STRESS PERIOD    1
     1 TOTAL ITERATIONS


     4 CALLS TO PCG ROUTINE FOR TIME STEP   1 IN STRESS PERIOD    1
    13 TOTAL ITERATIONS


     1 CALLS TO PCG ROUTINE FOR TIME STEP   1 IN STRESS PERIOD    1
     1 TOTAL ITERATIONS


     4 CALLS TO PCG ROUTINE FOR TIME STEP   1 IN STRESS PERIOD    1
    13 TOTAL ITERATIONS


     1 CALLS TO PCG ROUTINE FOR TIME STEP   1 IN STRESS PERIOD    1
     1 TOTAL ITERATIONS


     3 CALLS TO PCG ROUTINE FOR TIME STEP   1 IN STRESS PERIOD    1
    11 TOTAL ITERATIONS


     1 CALLS TO PCG ROUTINE FOR TIME STEP   1 IN STRESS PERIOD    1
     1 TOTAL ITERATIONS


     3 CALLS TO PCG ROUTINE FOR TIME STEP   1 IN STRESS PERIOD    1
    11 TOTAL ITERATIONS


     1 CALLS TO PCG ROUTINE FOR TIME STEP   1 IN STRESS PERIOD    1
     1 TOTAL ITERATIONS


     3 CALLS TO PCG ROUTINE FOR TIME STEP   1 IN STRESS PERIOD    1
    11 TOTAL ITERATIONS


     1 CALLS TO PCG ROUTINE FOR TIME STEP   1 IN STRESS PERIOD    1
     1 TOTAL ITERATIONS


     3 CALLS TO PCG ROUTINE FOR TIME STEP   1 IN STRESS PERIOD    1
    11 TOTAL ITERATIONS


     1 CALLS TO PCG ROUTINE FOR TIME STEP   1 IN STRESS PERIOD    1
     1 TOTAL ITERATIONS


     3 CALLS TO PCG ROUTINE FOR TIME STEP   1 IN STRESS PERIOD    1
    11 TOTAL ITERATIONS


     1 CALLS TO PCG ROUTINE FOR TIME STEP   1 IN STRESS PERIOD    1
     1 TOTAL ITERATIONS


     3 CALLS TO PCG ROUTINE FOR TIME STEP   1 IN STRESS PERIOD    1
    11 TOTAL ITERATIONS


     1 CALLS TO PCG ROUTINE FOR TIME STEP   1 IN STRESS PERIOD    1
     1 TOTAL ITERATIONS


     3 CALLS TO PCG ROUTINE FOR TIME STEP   1 IN STRESS PERIOD    1
    11 TOTAL ITERATIONS


     1 CALLS TO PCG ROUTINE FOR TIME STEP   1 IN STRESS PERIOD    1
     1 TOTAL ITERATIONS


     3 CALLS TO PCG ROUTINE FOR TIME STEP   1 IN STRESS PERIOD    1
    10 TOTAL ITERATIONS


     1 CALLS TO PCG ROUTINE FOR TIME STEP   1 IN STRESS PERIOD    1
     1 TOTAL ITERATIONS


     3 CALLS TO PCG ROUTINE FOR TIME STEP   1 IN STRESS PERIOD    1
    10 TOTAL ITERATIONS


     1 CALLS TO PCG ROUTINE FOR TIME STEP   1 IN STRESS PERIOD    1
     1 TOTAL ITERATIONS


     3 CALLS TO PCG ROUTINE FOR TIME STEP   1 IN STRESS PERIOD    1
     9 TOTAL ITERATIONS


     1 CALLS TO PCG ROUTINE FOR TIME STEP   1 IN STRESS PERIOD    1
     1 TOTAL ITERATIONS


     3 CALLS TO PCG ROUTINE FOR TIME STEP   1 IN STRESS PERIOD    1
     9 TOTAL ITERATIONS


     1 CALLS TO PCG ROUTINE FOR TIME STEP   1 IN STRESS PERIOD    1
     1 TOTAL ITERATIONS


     3 CALLS TO PCG ROUTINE FOR TIME STEP   1 IN STRESS PERIOD    1
     9 TOTAL ITERATIONS
1
              HEAD IN LAYER   1 AT END OF TIME STEP   1 IN STRESS PERIOD    1
  ---------------------------------------------------------------------------

            1           2           3           4           5           6           7           8           9          10
 ........................................................................................................................
   1    59.49       57.33       55.30       53.54       52.26       51.66       51.56       51.79       52.19       52.71    
   2    59.02       56.61       54.24       52.05       50.42       50.09       50.38       50.94       51.61       52.30    
   3    58.56       55.87       53.01       50.00       47.28       47.93       48.91       50.00       50.99       51.88    
   4    58.23       55.29       51.93       47.66       40.76       45.43       47.32       49.17       50.46       51.52    
   5    58.13       55.13       51.77       47.95       44.23       45.69       47.35       48.88       50.17       51.29    
   6    58.27       55.33       52.05       48.13       42.52       45.77       47.49       48.85       50.06       51.17    
   7    58.62       55.88       52.99       50.00       47.34       47.38       47.99       48.95       50.05       51.14    
   8    59.11       56.58       54.02       51.54       49.46       48.42       48.14       48.93       50.05       51.18    
   9    59.66       57.31       54.96       52.67       50.55       48.70       47.23       48.56       50.03       51.29    
  10    60.23       58.02       55.83       53.65       51.38       48.58       43.51       48.07       50.21       51.58    
  11    60.79       58.73       56.70       54.71       52.73       50.74       48.98       50.00       51.17       52.18    
  12    61.32       59.39       57.53       55.75       54.10       52.66       51.69       51.77       52.28       52.92    
  13    61.80       59.99       58.27       56.68       55.26       54.10       53.34       53.12       53.27       53.63    
1
  VOLUMETRIC BUDGET FOR ENTIRE MODEL AT END OF TIME STEP  1 IN STRESS PERIOD   1
  ------------------------------------------------------------------------------

     CUMULATIVE VOLUMES      L**3       RATES FOR THIS TIME STEP      L**3/T
     ------------------                 ------------------------

           IN:                                      IN:
           ---                                      ---
             STORAGE =           0.0000               STORAGE =           0.0000
       CONSTANT HEAD =     2865656.7154         CONSTANT HEAD =        2865.6567
        MANAGED FLOW =           0.0000          MANAGED FLOW =           0.0000

            TOTAL IN =     2865656.7154              TOTAL IN =        2865.6567

          OUT:                                     OUT:
          ----                                     ----
             STORAGE =           0.0000               STORAGE =           0.0000
       CONSTANT HEAD =           0.0000         CONSTANT HEAD =           0.0000
        MANAGED FLOW =     2865656.7154          MANAGED FLOW =        2865.6567

           TOTAL OUT =     2865656.7154             TOTAL OUT =        2865.6567

            IN - OUT =      -1.3895E-05              IN - OUT =      -1.3895E-08

 PERCENT DISCREPANCY =           0.00     PERCENT DISCREPANCY =           0.00






          TIME SUMMARY AT END OF TIME STEP   1 IN STRESS PERIOD    1
                    SECONDS     MINUTES      HOURS       DAYS        YEARS
                    -----------------------------------------------------------
   TIME STEP LENGTH 8.64000E+07 1.44000E+06  24000.      1000.0      2.7379    
 STRESS PERIOD TIME 8.64000E+07 1.44000E+06  24000.      1000.0      2.7379    
         TOTAL TIME 8.64000E+07 1.44000E+06  24000.      1000.0      2.7379    
1
1
  FLUX ACROSS PARENT-CHILD INTERFACE AT TIME STEP  1 IN STRESS PERIOD    1
  ------------------------------------------------------------------------

     CUMULATIVE VOLUMES      L**3       RATES FOR THIS TIME STEP      L**3/T
     ------------------                 ------------------------

   TOTAL IN TO CHILD =     2865656.7153     TOTAL IN TO CHILD =        2865.6567

 TOTAL OUT TO PARENT =           0.0000   TOTAL OUT TO PARENT =           0.0000


 Run end date and time (yyyy/mm/dd hh:mm:ss): 2010/07/27  9:37:17
 Elapsed run time:  1.245 Seconds

