                                  MODFLOW-LGR      
      U.S. GEOLOGICAL SURVEY MODULAR FINITE-DIFFERENCE GROUNDWATER FLOW MODEL
                 VERSION GWM-2005 1.3.1 053011,FROM MF-LGR V1.2


     FINAL FLOW PROCESS SIMULATION FOR GWM                                                                                                                                                                   


 REWOUND ..\data\DEWATER-LGR\deworg3_chd.dis
 FILE TYPE:DIS   UNIT   21

 REWOUND ..\data\DEWATER-LGR\deworg3_chd.ba6
 FILE TYPE:BAS6   UNIT   22

 REWOUND ..\data\DEWATER-LGR\deworg3_chd.bc6
 FILE TYPE:BCF6   UNIT   23

 REWOUND ..\data\DEWATER-LGR\deworg3.pcg
 FILE TYPE:PCG   UNIT   24

 REWOUND ..\data\DEWATER-LGR\deworg3_chd.gwm
 FILE TYPE:GWM   UNIT   25

 BAS -- BASIC PACKAGE, VERSION 7, 5/2/2005 INPUT READ FROM UNIT   22

 DISCRETIZATION INPUT DATA READ FROM UNIT   21
 #DEWATER-LGR Sample Problem, child DIS file 3:1 refinement
 #December, 2007
    1 LAYERS        37 ROWS        28 COLUMNS
    1 STRESS PERIOD(S) IN SIMULATION
 MODEL TIME UNIT IS DAYS
 MODEL LENGTH UNIT IS UNDEFINED
  Confining bed flag for each layer:
   0

                     DELR =   33.3333    

                     DELC =   33.3333    

 TOP ELEVATION OF LAYER 1 =   100.000    

   MODEL LAYER BOTTOM EL. =   100.000     FOR LAYER   1


 STRESS PERIOD     LENGTH       TIME STEPS     MULTIPLIER FOR DELT    SS FLAG
 ----------------------------------------------------------------------------
        1         1000.000          1                    1.000         SS

 STEADY-STATE SIMULATION



 
 #DEWATER-LGR Sample Problem, BAS6 file, Child 37x28                             
 #December, 2007                                                                 
 THE FREE FORMAT OPTION HAS BEEN SELECTED



                     BOUNDARY ARRAY FOR LAYER   1
 READING ON UNIT   22 WITH FORMAT: (20I4)              

                1           2           3           4           5           6           7           8           9          10
               11          12          13          14          15          16          17          18          19          20
               21          22          23          24          25          26          27          28
 ............................................................................................................................
   1          -59         -59         -59         -59         -59         -59         -59         -59         -59         -59
              -59         -59         -59         -59         -59         -59         -59         -59         -59         -59
              -59         -59         -59         -59         -59         -59         -59         -59
   2          -59           1           1           1           1           1           1           1           1           1
                1           1           1           1           1           1           1           1           1           1
                1           1           1           1           1           1           1         -59
   3          -59           1           1           1           1           1           1           1           1           1
                1           1           1           1           1           1           1           1           1           1
                1           1           1           1           1           1           1         -59
   4          -59           1           1           1           1           1           1           1           1           1
                1           1           1           1           1           1           1           1           1           1
                1           1           1           1           1           1           1         -59
   5          -59           1           1           1           1           1           1           1           1           1
                1           1           1           1           1           1           1           1           1           1
                1           1           1           1           1           1           1         -59
   6          -59           1           1           1           1           1           1           1           1           1
                1           1           1           1           1           1           1           1           1           1
                1           1           1           1           1           1           1         -59
   7          -59           1           1           1           1           1           1           1           1           1
                1           1           1           1           1           1           1           1           1           1
                1           1           1           1           1           1           1         -59
   8          -59           1           1           1           1           1           1           1           1           1
                1           1           1           1           1           1           1           1           1           1
                1           1           1           1           1           1           1         -59
   9          -59           1           1           1           1           1           1           1           1           1
                1           1           1           1           1           1           1           1           1           1
                1           1           1           1           1           1           1         -59
  10          -59           1           1           1           1           1           1           1           1           1
                1           1           1           1           1           1           1           1           1           1
                1           1           1           1           1           1           1         -59
  11          -59           1           1           1           1           1           1           1           1           1
                1           1           1           1           1           1           1           1           1           1
                1           1           1           1           1           1           1         -59
  12          -59           1           1           1           1           1           1           1           1           1
                1           1           1           1           1           1           1           1           1           1
                1           1           1           1           1           1           1         -59
  13          -59           1           1           1           1           1           1           1           1           1
                1           1           1           1           1           1           1           1           1           1
                1           1           1           1           1           1           1         -59
  14          -59           1           1           1           1           1           1           1           1           1
                1           1           1           1           1           1           1           1           1           1
                1           1           1           1           1           1           1         -59
  15          -59           1           1           1           1           1           1           1           1           1
                1           1           1           1           1           1           1           1           1           1
                1           1           1           1           1           1           1         -59
  16          -59           1           1           1           1           1           1           1           1           1
                1           1           1           1           1           1           1           1           1           1
                1           1           1           1           1           1           1         -59
  17          -59           1           1           1           1           1           1           1           1           1
                1           1           1           1           1           1           1           1           1           1
                1           1           1           1           1           1           1         -59
  18          -59           1           1           1           1           1           1           1           1           1
                1           1           1           1           1           1           1           1           1           1
                1           1           1           1           1           1           1         -59
  19          -59           1           1           1           1           1           1           1           1           1
                1           1           1           1           1           1           1           1           1           1
                1           1           1           1           1           1           1         -59
  20          -59           1           1           1           1           1           1           1           1           1
                1           1           1           1           1           1           1           1           1           1
                1           1           1           1           1           1           1         -59
  21          -59           1           1           1           1           1           1           1           1           1
                1           1           1           1           1           1           1           1           1           1
                1           1           1           1           1           1           1         -59
  22          -59           1           1           1           1           1           1           1           1           1
                1           1           1           1           1           1           1           1           1           1
                1           1           1           1           1           1           1         -59
  23          -59           1           1           1           1           1           1           1           1           1
                1           1           1           1           1           1           1           1           1           1
                1           1           1           1           1           1           1         -59
  24          -59           1           1           1           1           1           1           1           1           1
                1           1           1           1           1           1           1           1           1           1
                1           1           1           1           1           1           1         -59
  25          -59           1           1           1           1           1           1           1           1           1
                1           1           1           1           1           1           1           1           1           1
                1           1           1           1           1           1           1         -59
  26          -59           1           1           1           1           1           1           1           1           1
                1           1           1           1           1           1           1           1           1           1
                1           1           1           1           1           1           1         -59
  27          -59           1           1           1           1           1           1           1           1           1
                1           1           1           1           1           1           1           1           1           1
                1           1           1           1           1           1           1         -59
  28          -59           1           1           1           1           1           1           1           1           1
                1           1           1           1           1           1           1           1           1           1
                1           1           1           1           1           1           1         -59
  29          -59           1           1           1           1           1           1           1           1           1
                1           1           1           1           1           1           1           1           1           1
                1           1           1           1           1           1           1         -59
  30          -59           1           1           1           1           1           1           1           1           1
                1           1           1           1           1           1           1           1           1           1
                1           1           1           1           1           1           1         -59
  31          -59           1           1           1           1           1           1           1           1           1
                1           1           1           1           1           1           1           1           1           1
                1           1           1           1           1           1           1         -59
  32          -59           1           1           1           1           1           1           1           1           1
                1           1           1           1           1           1           1           1           1           1
                1           1           1           1           1           1           1         -59
  33          -59           1           1           1           1           1           1           1           1           1
                1           1           1           1           1           1           1           1           1           1
                1           1           1           1           1           1           1         -59
  34          -59           1           1           1           1           1           1           1           1           1
                1           1           1           1           1           1           1           1           1           1
                1           1           1           1           1           1           1         -59
  35          -59           1           1           1           1           1           1           1           1           1
                1           1           1           1           1           1           1           1           1           1
                1           1           1           1           1           1           1         -59
  36          -59           1           1           1           1           1           1           1           1           1
                1           1           1           1           1           1           1           1           1           1
                1           1           1           1           1           1           1         -59
  37          -59         -59         -59         -59         -59         -59         -59         -59         -59         -59
              -59         -59         -59         -59         -59         -59         -59         -59         -59         -59
              -59         -59         -59         -59         -59         -59         -59         -59

 AQUIFER HEAD WILL BE SET TO  0.0000     AT ALL NO-FLOW NODES (IBOUND=0).



                       INITIAL HEAD FOR LAYER   1
 READING ON UNIT   22 WITH FORMAT: (10F13.0)           

            1           2           3           4           5           6           7           8           9          10
           11          12          13          14          15          16          17          18          19          20
           21          22          23          24          25          26          27          28
 ........................................................................................................................
   1    70.00       70.00       70.00       70.00       70.00       70.00       70.00       70.00       70.00       70.00    
        70.00       70.00       70.00       70.00       70.00       70.00       70.00       70.00       70.00       70.00    
        70.00       70.00       70.00       70.00       70.00       70.00       70.00       70.00    
   2    70.00       70.00       70.00       70.00       70.00       70.00       70.00       70.00       70.00       70.00    
        70.00       70.00       70.00       70.00       70.00       70.00       70.00       70.00       70.00       70.00    
        70.00       70.00       70.00       70.00       70.00       70.00       70.00       70.00    
   3    70.00       70.00       70.00       70.00       70.00       70.00       70.00       70.00       70.00       70.00    
        70.00       70.00       70.00       70.00       70.00       70.00       70.00       70.00       70.00       70.00    
        70.00       70.00       70.00       70.00       70.00       70.00       70.00       70.00    
   4    70.00       70.00       70.00       70.00       70.00       70.00       70.00       70.00       70.00       70.00    
        70.00       70.00       70.00       70.00       70.00       70.00       70.00       70.00       70.00       70.00    
        70.00       70.00       70.00       70.00       70.00       70.00       70.00       70.00    
   5    70.00       70.00       70.00       70.00       70.00       70.00       70.00       70.00       70.00       70.00    
        70.00       70.00       70.00       70.00       70.00       70.00       70.00       70.00       70.00       70.00    
        70.00       70.00       70.00       70.00       70.00       70.00       70.00       70.00    
   6    70.00       70.00       70.00       70.00       70.00       70.00       70.00       70.00       70.00       70.00    
        70.00       70.00       70.00       70.00       70.00       70.00       70.00       70.00       70.00       70.00    
        70.00       70.00       70.00       70.00       70.00       70.00       70.00       70.00    
   7    70.00       70.00       70.00       70.00       70.00       70.00       70.00       70.00       70.00       70.00    
        70.00       70.00       70.00       70.00       70.00       70.00       70.00       70.00       70.00       70.00    
        70.00       70.00       70.00       70.00       70.00       70.00       70.00       70.00    
   8    70.00       70.00       70.00       70.00       70.00       70.00       70.00       70.00       70.00       70.00    
        70.00       70.00       70.00       70.00       70.00       70.00       70.00       70.00       70.00       70.00    
        70.00       70.00       70.00       70.00       70.00       70.00       70.00       70.00    
   9    70.00       70.00       70.00       70.00       70.00       70.00       70.00       70.00       70.00       70.00    
        70.00       70.00       70.00       70.00       70.00       70.00       70.00       70.00       70.00       70.00    
        70.00       70.00       70.00       70.00       70.00       70.00       70.00       70.00    
  10    70.00       70.00       70.00       70.00       70.00       70.00       70.00       70.00       70.00       70.00    
        70.00       70.00       70.00       70.00       70.00       70.00       70.00       70.00       70.00       70.00    
        70.00       70.00       70.00       70.00       70.00       70.00       70.00       70.00    
  11    70.00       70.00       70.00       70.00       70.00       70.00       70.00       70.00       70.00       70.00    
        70.00       70.00       70.00       70.00       70.00       70.00       70.00       70.00       70.00       70.00    
        70.00       70.00       70.00       70.00       70.00       70.00       70.00       70.00    
  12    70.00       70.00       70.00       70.00       70.00       70.00       70.00       70.00       70.00       70.00    
        70.00       70.00       70.00       70.00       70.00       70.00       70.00       70.00       70.00       70.00    
        70.00       70.00       70.00       70.00       70.00       70.00       70.00       70.00    
  13    70.00       70.00       70.00       70.00       70.00       70.00       70.00       70.00       70.00       70.00    
        70.00       70.00       70.00       70.00       70.00       70.00       70.00       70.00       70.00       70.00    
        70.00       70.00       70.00       70.00       70.00       70.00       70.00       70.00    
  14    70.00       70.00       70.00       70.00       70.00       70.00       70.00       70.00       70.00       70.00    
        70.00       70.00       70.00       70.00       70.00       70.00       70.00       70.00       70.00       70.00    
        70.00       70.00       70.00       70.00       70.00       70.00       70.00       70.00    
  15    70.00       70.00       70.00       70.00       70.00       70.00       70.00       70.00       70.00       70.00    
        70.00       70.00       70.00       70.00       70.00       70.00       70.00       70.00       70.00       70.00    
        70.00       70.00       70.00       70.00       70.00       70.00       70.00       70.00    
  16    70.00       70.00       70.00       70.00       70.00       70.00       70.00       70.00       70.00       70.00    
        70.00       70.00       70.00       70.00       70.00       70.00       70.00       70.00       70.00       70.00    
        70.00       70.00       70.00       70.00       70.00       70.00       70.00       70.00    
  17    70.00       70.00       70.00       70.00       70.00       70.00       70.00       70.00       70.00       70.00    
        70.00       70.00       70.00       70.00       70.00       70.00       70.00       70.00       70.00       70.00    
        70.00       70.00       70.00       70.00       70.00       70.00       70.00       70.00    
  18    70.00       70.00       70.00       70.00       70.00       70.00       70.00       70.00       70.00       70.00    
        70.00       70.00       70.00       70.00       70.00       70.00       70.00       70.00       70.00       70.00    
        70.00       70.00       70.00       70.00       70.00       70.00       70.00       70.00    
  19    70.00       70.00       70.00       70.00       70.00       70.00       70.00       70.00       70.00       70.00    
        70.00       70.00       70.00       70.00       70.00       70.00       70.00       70.00       70.00       70.00    
        70.00       70.00       70.00       70.00       70.00       70.00       70.00       70.00    
  20    70.00       70.00       70.00       70.00       70.00       70.00       70.00       70.00       70.00       70.00    
        70.00       70.00       70.00       70.00       70.00       70.00       70.00       70.00       70.00       70.00    
        70.00       70.00       70.00       70.00       70.00       70.00       70.00       70.00    
  21    70.00       70.00       70.00       70.00       70.00       70.00       70.00       70.00       70.00       70.00    
        70.00       70.00       70.00       70.00       70.00       70.00       70.00       70.00       70.00       70.00    
        70.00       70.00       70.00       70.00       70.00       70.00       70.00       70.00    
  22    70.00       70.00       70.00       70.00       70.00       70.00       70.00       70.00       70.00       70.00    
        70.00       70.00       70.00       70.00       70.00       70.00       70.00       70.00       70.00       70.00    
        70.00       70.00       70.00       70.00       70.00       70.00       70.00       70.00    
  23    70.00       70.00       70.00       70.00       70.00       70.00       70.00       70.00       70.00       70.00    
        70.00       70.00       70.00       70.00       70.00       70.00       70.00       70.00       70.00       70.00    
        70.00       70.00       70.00       70.00       70.00       70.00       70.00       70.00    
  24    70.00       70.00       70.00       70.00       70.00       70.00       70.00       70.00       70.00       70.00    
        70.00       70.00       70.00       70.00       70.00       70.00       70.00       70.00       70.00       70.00    
        70.00       70.00       70.00       70.00       70.00       70.00       70.00       70.00    
  25    70.00       70.00       70.00       70.00       70.00       70.00       70.00       70.00       70.00       70.00    
        70.00       70.00       70.00       70.00       70.00       70.00       70.00       70.00       70.00       70.00    
        70.00       70.00       70.00       70.00       70.00       70.00       70.00       70.00    
  26    70.00       70.00       70.00       70.00       70.00       70.00       70.00       70.00       70.00       70.00    
        70.00       70.00       70.00       70.00       70.00       70.00       70.00       70.00       70.00       70.00    
        70.00       70.00       70.00       70.00       70.00       70.00       70.00       70.00    
  27    70.00       70.00       70.00       70.00       70.00       70.00       70.00       70.00       70.00       70.00    
        70.00       70.00       70.00       70.00       70.00       70.00       70.00       70.00       70.00       70.00    
        70.00       70.00       70.00       70.00       70.00       70.00       70.00       70.00    
  28    70.00       70.00       70.00       70.00       70.00       70.00       70.00       70.00       70.00       70.00    
        70.00       70.00       70.00       70.00       70.00       70.00       70.00       70.00       70.00       70.00    
        70.00       70.00       70.00       70.00       70.00       70.00       70.00       70.00    
  29    70.00       70.00       70.00       70.00       70.00       70.00       70.00       70.00       70.00       70.00    
        70.00       70.00       70.00       70.00       70.00       70.00       70.00       70.00       70.00       70.00    
        70.00       70.00       70.00       70.00       70.00       70.00       70.00       70.00    
  30    70.00       70.00       70.00       70.00       70.00       70.00       70.00       70.00       70.00       70.00    
        70.00       70.00       70.00       70.00       70.00       70.00       70.00       70.00       70.00       70.00    
        70.00       70.00       70.00       70.00       70.00       70.00       70.00       70.00    
  31    70.00       70.00       70.00       70.00       70.00       70.00       70.00       70.00       70.00       70.00    
        70.00       70.00       70.00       70.00       70.00       70.00       70.00       70.00       70.00       70.00    
        70.00       70.00       70.00       70.00       70.00       70.00       70.00       70.00    
  32    70.00       70.00       70.00       70.00       70.00       70.00       70.00       70.00       70.00       70.00    
        70.00       70.00       70.00       70.00       70.00       70.00       70.00       70.00       70.00       70.00    
        70.00       70.00       70.00       70.00       70.00       70.00       70.00       70.00    
  33    70.00       70.00       70.00       70.00       70.00       70.00       70.00       70.00       70.00       70.00    
        70.00       70.00       70.00       70.00       70.00       70.00       70.00       70.00       70.00       70.00    
        70.00       70.00       70.00       70.00       70.00       70.00       70.00       70.00    
  34    70.00       70.00       70.00       70.00       70.00       70.00       70.00       70.00       70.00       70.00    
        70.00       70.00       70.00       70.00       70.00       70.00       70.00       70.00       70.00       70.00    
        70.00       70.00       70.00       70.00       70.00       70.00       70.00       70.00    
  35    70.00       70.00       70.00       70.00       70.00       70.00       70.00       70.00       70.00       70.00    
        70.00       70.00       70.00       70.00       70.00       70.00       70.00       70.00       70.00       70.00    
        70.00       70.00       70.00       70.00       70.00       70.00       70.00       70.00    
  36    70.00       70.00       70.00       70.00       70.00       70.00       70.00       70.00       70.00       70.00    
        70.00       70.00       70.00       70.00       70.00       70.00       70.00       70.00       70.00       70.00    
        70.00       70.00       70.00       70.00       70.00       70.00       70.00       70.00    
  37    70.00       70.00       70.00       70.00       70.00       70.00       70.00       70.00       70.00       70.00    
        70.00       70.00       70.00       70.00       70.00       70.00       70.00       70.00       70.00       70.00    
        70.00       70.00       70.00       70.00       70.00       70.00       70.00       70.00    

 DEFAULT OUTPUT CONTROL
 THE FOLLOWING OUTPUT COMES AT THE END OF EACH STRESS PERIOD:
 TOTAL VOLUMETRIC BUDGET
           HEAD

 BCF -- BLOCK-CENTERED FLOW PACKAGE, VERSION 7, 5/2/2005
         INPUT READ FROM UNIT 23
 STEADY-STATE SIMULATION
 HEAD AT CELLS THAT CONVERT TO DRY=   0.0000    
 WETTING CAPABILITY IS ACTIVE
 WETTING FACTOR=   1.00000     WETTING ITERATION INTERVAL=   1
 FLAG THAT SPECIFIES THE EQUATION TO USE FOR HEAD AT WETTED CELLS=   0
      LAYER  LAYER-TYPE CODE     INTERBLOCK T
      --------------------------------------------
         1            0          0 -- HARMONIC    

 COLUMN TO ROW ANISOTROPY =   1.00000    

     TRANSMIS. ALONG ROWS =   50.0000     FOR LAYER   1
1
                            STRESS PERIOD NO.    1, LENGTH =   1000.000    
                            -----------------------------------------------

                              NUMBER OF TIME STEPS =     1

                               MULTIPLIER FOR DELT =     1.000

                            INITIAL TIME STEP SIZE =   1000.000    
 
 SOLVING FOR HEAD 


     2 CALLS TO PCG ROUTINE FOR TIME STEP   1 IN STRESS PERIOD    1
     3 TOTAL ITERATIONS


     8 CALLS TO PCG ROUTINE FOR TIME STEP   1 IN STRESS PERIOD    1
    35 TOTAL ITERATIONS


     2 CALLS TO PCG ROUTINE FOR TIME STEP   1 IN STRESS PERIOD    1
     3 TOTAL ITERATIONS


     8 CALLS TO PCG ROUTINE FOR TIME STEP   1 IN STRESS PERIOD    1
    34 TOTAL ITERATIONS


     2 CALLS TO PCG ROUTINE FOR TIME STEP   1 IN STRESS PERIOD    1
     3 TOTAL ITERATIONS


     7 CALLS TO PCG ROUTINE FOR TIME STEP   1 IN STRESS PERIOD    1
    31 TOTAL ITERATIONS


     2 CALLS TO PCG ROUTINE FOR TIME STEP   1 IN STRESS PERIOD    1
     3 TOTAL ITERATIONS


     7 CALLS TO PCG ROUTINE FOR TIME STEP   1 IN STRESS PERIOD    1
    31 TOTAL ITERATIONS


     2 CALLS TO PCG ROUTINE FOR TIME STEP   1 IN STRESS PERIOD    1
     3 TOTAL ITERATIONS


     7 CALLS TO PCG ROUTINE FOR TIME STEP   1 IN STRESS PERIOD    1
    29 TOTAL ITERATIONS


     2 CALLS TO PCG ROUTINE FOR TIME STEP   1 IN STRESS PERIOD    1
     3 TOTAL ITERATIONS


     7 CALLS TO PCG ROUTINE FOR TIME STEP   1 IN STRESS PERIOD    1
    29 TOTAL ITERATIONS


     2 CALLS TO PCG ROUTINE FOR TIME STEP   1 IN STRESS PERIOD    1
     3 TOTAL ITERATIONS


     7 CALLS TO PCG ROUTINE FOR TIME STEP   1 IN STRESS PERIOD    1
    28 TOTAL ITERATIONS


     2 CALLS TO PCG ROUTINE FOR TIME STEP   1 IN STRESS PERIOD    1
     3 TOTAL ITERATIONS


     6 CALLS TO PCG ROUTINE FOR TIME STEP   1 IN STRESS PERIOD    1
    26 TOTAL ITERATIONS


     2 CALLS TO PCG ROUTINE FOR TIME STEP   1 IN STRESS PERIOD    1
     3 TOTAL ITERATIONS


     6 CALLS TO PCG ROUTINE FOR TIME STEP   1 IN STRESS PERIOD    1
    26 TOTAL ITERATIONS


     2 CALLS TO PCG ROUTINE FOR TIME STEP   1 IN STRESS PERIOD    1
     3 TOTAL ITERATIONS


     6 CALLS TO PCG ROUTINE FOR TIME STEP   1 IN STRESS PERIOD    1
    26 TOTAL ITERATIONS


     2 CALLS TO PCG ROUTINE FOR TIME STEP   1 IN STRESS PERIOD    1
     3 TOTAL ITERATIONS


     6 CALLS TO PCG ROUTINE FOR TIME STEP   1 IN STRESS PERIOD    1
    25 TOTAL ITERATIONS


     2 CALLS TO PCG ROUTINE FOR TIME STEP   1 IN STRESS PERIOD    1
     3 TOTAL ITERATIONS


     6 CALLS TO PCG ROUTINE FOR TIME STEP   1 IN STRESS PERIOD    1
    24 TOTAL ITERATIONS


     2 CALLS TO PCG ROUTINE FOR TIME STEP   1 IN STRESS PERIOD    1
     3 TOTAL ITERATIONS


     5 CALLS TO PCG ROUTINE FOR TIME STEP   1 IN STRESS PERIOD    1
    21 TOTAL ITERATIONS


     2 CALLS TO PCG ROUTINE FOR TIME STEP   1 IN STRESS PERIOD    1
     3 TOTAL ITERATIONS


     5 CALLS TO PCG ROUTINE FOR TIME STEP   1 IN STRESS PERIOD    1
    21 TOTAL ITERATIONS


     2 CALLS TO PCG ROUTINE FOR TIME STEP   1 IN STRESS PERIOD    1
     3 TOTAL ITERATIONS


     5 CALLS TO PCG ROUTINE FOR TIME STEP   1 IN STRESS PERIOD    1
    21 TOTAL ITERATIONS


     2 CALLS TO PCG ROUTINE FOR TIME STEP   1 IN STRESS PERIOD    1
     3 TOTAL ITERATIONS


     5 CALLS TO PCG ROUTINE FOR TIME STEP   1 IN STRESS PERIOD    1
    21 TOTAL ITERATIONS


     2 CALLS TO PCG ROUTINE FOR TIME STEP   1 IN STRESS PERIOD    1
     3 TOTAL ITERATIONS


     5 CALLS TO PCG ROUTINE FOR TIME STEP   1 IN STRESS PERIOD    1
    21 TOTAL ITERATIONS


     2 CALLS TO PCG ROUTINE FOR TIME STEP   1 IN STRESS PERIOD    1
     3 TOTAL ITERATIONS


     5 CALLS TO PCG ROUTINE FOR TIME STEP   1 IN STRESS PERIOD    1
    19 TOTAL ITERATIONS


     2 CALLS TO PCG ROUTINE FOR TIME STEP   1 IN STRESS PERIOD    1
     3 TOTAL ITERATIONS


     5 CALLS TO PCG ROUTINE FOR TIME STEP   1 IN STRESS PERIOD    1
    18 TOTAL ITERATIONS


     2 CALLS TO PCG ROUTINE FOR TIME STEP   1 IN STRESS PERIOD    1
     3 TOTAL ITERATIONS


     4 CALLS TO PCG ROUTINE FOR TIME STEP   1 IN STRESS PERIOD    1
    16 TOTAL ITERATIONS


     2 CALLS TO PCG ROUTINE FOR TIME STEP   1 IN STRESS PERIOD    1
     3 TOTAL ITERATIONS


     4 CALLS TO PCG ROUTINE FOR TIME STEP   1 IN STRESS PERIOD    1
    16 TOTAL ITERATIONS


     2 CALLS TO PCG ROUTINE FOR TIME STEP   1 IN STRESS PERIOD    1
     3 TOTAL ITERATIONS


     4 CALLS TO PCG ROUTINE FOR TIME STEP   1 IN STRESS PERIOD    1
    16 TOTAL ITERATIONS


     2 CALLS TO PCG ROUTINE FOR TIME STEP   1 IN STRESS PERIOD    1
     3 TOTAL ITERATIONS


     4 CALLS TO PCG ROUTINE FOR TIME STEP   1 IN STRESS PERIOD    1
    15 TOTAL ITERATIONS


     2 CALLS TO PCG ROUTINE FOR TIME STEP   1 IN STRESS PERIOD    1
     3 TOTAL ITERATIONS


     4 CALLS TO PCG ROUTINE FOR TIME STEP   1 IN STRESS PERIOD    1
    14 TOTAL ITERATIONS


     2 CALLS TO PCG ROUTINE FOR TIME STEP   1 IN STRESS PERIOD    1
     3 TOTAL ITERATIONS


     4 CALLS TO PCG ROUTINE FOR TIME STEP   1 IN STRESS PERIOD    1
    13 TOTAL ITERATIONS


     2 CALLS TO PCG ROUTINE FOR TIME STEP   1 IN STRESS PERIOD    1
     3 TOTAL ITERATIONS


     3 CALLS TO PCG ROUTINE FOR TIME STEP   1 IN STRESS PERIOD    1
    11 TOTAL ITERATIONS
1
              HEAD IN LAYER   1 AT END OF TIME STEP   1 IN STRESS PERIOD    1
  ---------------------------------------------------------------------------

            1           2           3           4           5           6           7           8           9          10
           11          12          13          14          15          16          17          18          19          20
           21          22          23          24          25          26          27          28
 ........................................................................................................................
   1    59.50       58.78       58.07       57.35       56.68       56.01       55.33       54.76       54.18       53.60    
        53.19       52.77       52.35       52.14       51.92       51.71       51.66       51.62       51.58       51.65    
        51.72       51.78       51.92       52.05       52.19       52.36       52.53       52.70    
   2    59.35       58.61       57.87       57.13       56.42       55.71       55.02       54.38       53.76       53.19    
        52.69       52.25       51.88       51.61       51.41       51.27       51.22       51.20       51.23       51.31    
        51.41       51.53       51.68       51.84       52.01       52.19       52.38       52.57    
   3    59.20       58.43       57.66       56.90       56.14       55.40       54.67       53.97       53.31       52.69    
        52.14       51.67       51.30       51.02       50.84       50.75       50.72       50.75       50.83       50.94    
        51.09       51.25       51.43       51.62       51.81       52.02       52.23       52.44    
   4    59.06       58.26       57.46       56.66       55.86       55.07       54.29       53.53       52.80       52.12    
        51.52       51.00       50.61       50.34       50.19       50.15       50.17       50.26       50.39       50.56    
        50.74       50.95       51.16       51.38       51.61       51.84       52.07       52.30    
   5    58.91       58.08       57.25       56.41       55.57       54.73       53.89       53.06       52.25       51.49    
        50.79       50.21       49.79       49.54       49.44       49.47       49.57       49.73       49.92       50.14    
        50.38       50.63       50.89       51.15       51.41       51.66       51.92       52.17    
   6    58.76       57.91       57.04       56.17       55.28       54.38       53.47       52.56       51.66       50.78    
        49.96       49.27       48.79       48.58       48.58       48.71       48.91       49.15       49.42       49.71    
        50.01       50.32       50.62       50.91       51.20       51.48       51.76       52.03    
   7    58.62       57.75       56.85       55.94       55.00       54.05       53.07       52.06       51.03       50.00    
        49.00       48.12       47.53       47.41       47.58       47.88       48.21       48.55       48.90       49.27    
        49.64       50.00       50.35       50.68       51.00       51.31       51.61       51.90    
   8    58.51       57.60       56.68       55.73       54.75       53.74       52.68       51.58       50.42       49.19    
        47.91       46.68       45.80       45.95       46.46       47.01       47.51       47.94       48.36       48.82    
        49.27       49.70       50.10       50.47       50.82       51.15       51.47       51.78    
   9    58.41       57.48       56.53       55.55       54.53       53.47       52.35       51.16       49.87       48.43    
        46.79       44.88       43.04       44.14       45.30       46.19       46.86       47.36       47.77       48.38    
        48.93       49.43       49.87       50.27       50.65       51.01       51.34       51.67    
  10    58.31       57.37       56.40       55.40       54.35       53.25       52.09       50.84       49.46       47.89    
        45.92       43.03       37.31       42.28       44.41       45.60       46.38       46.87       46.99       47.98    
        48.66       49.21       49.68       50.11       50.50       50.87       51.23       51.55    
  11    58.27       57.31       56.32       55.30       54.23       53.11       51.92       50.64       49.26       47.73    
        45.98       44.00       42.12       43.24       44.46       45.43       46.18       46.76       47.24       47.91    
        48.52       49.05       49.54       49.98       50.38       50.77       51.13       51.48    
  12    58.24       57.27       56.27       55.23       54.16       53.03       51.83       50.56       49.21       47.77    
        46.28       44.88       43.91       44.11       44.76       45.48       46.15       46.75       47.31       47.89    
        48.44       48.96       49.44       49.88       50.29       50.67       51.04       51.40    
  13    58.20       57.25       56.25       55.22       54.14       53.01       51.82       50.56       49.24       47.87    
        46.51       45.30       44.54       44.54       44.97       45.57       46.19       46.79       47.35       47.89    
        48.42       48.91       49.37       49.80       50.21       50.60       50.97       51.32    
  14    58.25       57.28       56.28       55.25       54.17       53.05       51.87       50.63       49.32       47.95    
        46.57       45.29       44.42       44.52       45.03       45.65       46.27       46.85       47.40       47.92    
        48.42       48.89       49.33       49.76       50.16       50.55       50.92       51.28    
  15    58.29       57.33       56.34       55.32       54.25       53.15       51.99       50.76       49.46       48.05    
        46.52       44.87       43.35       44.08       44.96       45.73       46.38       46.95       47.48       47.97    
        48.44       48.89       49.32       49.73       50.13       50.51       50.88       51.24    
  16    58.34       57.40       56.43       55.42       54.38       53.30       52.17       50.97       49.69       48.28    
        46.61       44.31       40.01       43.51       45.02       45.91       46.56       47.11       47.60       48.05    
        48.49       48.91       49.32       49.72       50.11       50.48       50.85       51.20    
  17    58.45       57.51       56.55       55.57       54.55       53.50       52.41       51.27       50.06       48.76    
        47.33       45.74       44.24       44.93       45.70       46.33       46.86       47.32       47.74       48.15    
        48.55       48.94       49.33       49.72       50.09       50.47       50.83       51.19    
  18    58.57       57.64       56.71       55.74       54.76       53.75       52.70       51.63       50.52       49.37    
        48.21       47.10       46.28       46.25       46.52       46.87       47.22       47.56       47.91       48.26    
        48.61       48.98       49.35       49.72       50.09       50.46       50.82       51.18    
  19    58.68       57.79       56.88       55.94       54.99       54.02       53.03       52.03       51.01       50.00    
        49.03       48.16       47.54       47.28       47.27       47.39       47.58       47.81       48.07       48.36    
        48.67       49.01       49.36       49.72       50.09       50.46       50.82       51.17    
  20    58.84       57.96       57.07       56.16       55.24       54.31       53.38       52.43       51.50       50.59    
        49.74       48.99       48.42       48.06       47.89       47.85       47.90       48.02       48.20       48.43    
        48.71       49.02       49.36       49.72       50.09       50.46       50.82       51.19    
  21    59.00       58.14       57.27       56.39       55.51       54.62       53.72       52.83       51.96       51.12    
        50.34       49.65       49.08       48.66       48.38       48.21       48.15       48.17       48.27       48.46    
        48.71       49.01       49.35       49.71       50.08       50.46       50.83       51.20    
  22    59.16       58.33       57.48       56.63       55.78       54.92       54.06       53.22       52.39       51.60    
        50.86       50.18       49.60       49.13       48.75       48.48       48.31       48.24       48.28       48.42    
        48.66       48.96       49.31       49.69       50.08       50.46       50.84       51.21    
  23    59.35       58.53       57.70       56.88       56.05       55.22       54.40       53.58       52.79       52.03    
        51.30       50.63       50.02       49.48       49.02       48.65       48.36       48.20       48.17       48.29    
        48.54       48.87       49.25       49.66       50.07       50.47       50.87       51.26    
  24    59.53       58.73       57.92       57.12       56.32       55.51       54.72       53.93       53.16       52.41    
        51.69       51.01       50.36       49.76       49.21       48.72       48.30       48.01       47.91       48.04    
        48.33       48.73       49.17       49.62       50.07       50.49       50.90       51.30    
  25    59.71       58.93       58.15       57.36       56.58       55.80       55.03       54.26       53.51       52.77    
        52.05       51.34       50.66       49.99       49.34       48.71       48.12       47.65       47.43       47.61    
        48.03       48.55       49.08       49.59       50.08       50.53       50.96       51.35    
  26    59.90       59.14       58.37       57.61       56.84       56.09       55.33       54.58       53.84       53.11    
        52.38       51.66       50.94       50.21       49.45       48.66       47.83       47.03       46.54       46.94    
        47.63       48.35       49.01       49.59       50.12       50.60       51.04       51.46    
  27    60.09       59.34       58.60       57.85       57.10       56.36       55.63       54.89       54.17       53.44    
        52.72       51.98       51.24       50.45       49.60       48.64       47.49       46.11       44.75       45.97    
        47.22       48.21       49.00       49.65       50.21       50.70       51.15       51.56    
  28    60.28       59.55       58.82       58.09       57.36       56.64       55.92       55.20       54.49       53.77    
        53.05       52.32       51.57       50.76       49.86       48.80       47.40       45.16       40.39       44.99    
        47.05       48.27       49.13       49.80       50.37       50.85       51.29       51.67    
  29    60.47       59.75       59.04       58.32       57.61       56.91       56.21       55.51       54.81       54.11    
        53.40       52.69       51.94       51.16       50.29       49.31       48.14       46.73       45.34       46.53    
        47.74       48.69       49.45       50.07       50.60       51.06       51.48       51.86    
  30    60.65       59.95       59.25       58.56       57.87       57.18       56.49       55.81       55.13       54.45    
        53.77       53.07       52.36       51.62       50.84       50.01       49.13       48.27       47.72       48.05    
        48.67       49.32       49.91       50.43       50.89       51.31       51.69       52.05    
  31    60.84       60.15       59.47       58.79       58.11       57.44       56.77       56.11       55.45       54.80    
        54.14       53.48       52.81       52.14       51.45       50.76       50.09       49.52       49.20       49.28    
        49.59       50.00       50.43       50.84       51.23       51.59       51.93       52.24    
  32    61.02       60.34       59.67       59.01       58.35       57.70       57.05       56.41       55.78       55.15    
        54.52       53.89       53.27       52.66       52.05       51.47       50.95       50.53       50.28       50.26    
        50.41       50.66       50.96       51.28       51.59       51.90       52.19       52.48    
  33    61.19       60.53       59.88       59.23       58.59       57.95       57.33       56.71       56.09       55.49    
        54.89       54.30       53.73       53.17       52.63       52.14       51.70       51.36       51.15       51.08    
        51.13       51.28       51.48       51.71       51.96       52.21       52.47       52.72    
  34    61.37       60.72       60.08       59.44       58.82       58.20       57.59       56.99       56.40       55.82    
        55.26       54.70       54.17       53.66       53.18       52.74       52.36       52.06       51.86       51.77    
        51.77       51.84       51.97       52.14       52.33       52.53       52.74       52.95    
  35    61.52       60.89       60.27       59.65       59.04       58.44       57.85       57.27       56.70       56.14    
        55.61       55.08       54.58       54.11       53.68       53.28       52.94       52.67       52.48       52.36    
        52.32       52.35       52.42       52.54       52.68       52.84       53.01       53.18    
  36    61.68       61.06       60.45       59.84       59.25       58.67       58.09       57.53       56.98       56.45    
        55.94       55.45       54.97       54.54       54.13       53.76       53.46       53.21       53.00       52.89    
        52.82       52.80       52.84       52.91       53.01       53.13       53.27       53.41    
  37    61.83       61.23       60.63       60.03       59.46       58.89       58.31       57.79       57.26       56.73    
        56.26       55.79       55.32       54.94       54.55       54.17       53.93       53.69       53.44       53.36    
        53.27       53.19       53.23       53.27       53.31       53.42       53.53       53.64    
1
  VOLUMETRIC BUDGET FOR ENTIRE MODEL AT END OF TIME STEP  1 IN STRESS PERIOD   1
  ------------------------------------------------------------------------------

     CUMULATIVE VOLUMES      L**3       RATES FOR THIS TIME STEP      L**3/T
     ------------------                 ------------------------

           IN:                                      IN:
           ---                                      ---
             STORAGE =           0.0000               STORAGE =           0.0000
       CONSTANT HEAD =     2857966.7973         CONSTANT HEAD =        2857.9668
        MANAGED FLOW =           0.0000          MANAGED FLOW =           0.0000

            TOTAL IN =     2857966.7973              TOTAL IN =        2857.9668

          OUT:                                     OUT:
          ----                                     ----
             STORAGE =           0.0000               STORAGE =           0.0000
       CONSTANT HEAD =           0.0000         CONSTANT HEAD =           0.0000
        MANAGED FLOW =     2857966.8045          MANAGED FLOW =        2857.9668

           TOTAL OUT =     2857966.8045             TOTAL OUT =        2857.9668

            IN - OUT =      -7.2494E-03              IN - OUT =      -7.2494E-06

 PERCENT DISCREPANCY =           0.00     PERCENT DISCREPANCY =           0.00






          TIME SUMMARY AT END OF TIME STEP   1 IN STRESS PERIOD    1
                    SECONDS     MINUTES      HOURS       DAYS        YEARS
                    -----------------------------------------------------------
   TIME STEP LENGTH 8.64000E+07 1.44000E+06  24000.      1000.0      2.7379    
 STRESS PERIOD TIME 8.64000E+07 1.44000E+06  24000.      1000.0      2.7379    
         TOTAL TIME 8.64000E+07 1.44000E+06  24000.      1000.0      2.7379    
1
1
  FLUX ACROSS PARENT-CHILD INTERFACE AT TIME STEP  1 IN STRESS PERIOD    1
  ------------------------------------------------------------------------

     CUMULATIVE VOLUMES      L**3       RATES FOR THIS TIME STEP      L**3/T
     ------------------                 ------------------------

   TOTAL IN TO CHILD =     2857966.7986     TOTAL IN TO CHILD =        2857.9668

 TOTAL OUT TO PARENT =           0.0000   TOTAL OUT TO PARENT =           0.0000


 Run end date and time (yyyy/mm/dd hh:mm:ss): 2011/05/30 15:03:34
 Elapsed run time:  2.636 Seconds

