                                  MODFLOW-LGR      
      U.S. GEOLOGICAL SURVEY MODULAR FINITE-DIFFERENCE GROUNDWATER FLOW MODEL
                 VERSION GWM-2005 1.4.2 032513,FROM MF-LGR V1.2


     FINAL FLOW PROCESS SIMULATION FOR GWM                                                                                                                                                                   


 REWOUND ..\data\DEWATER-LGR\deworg7_chd.dis
 FILE TYPE:DIS   UNIT   21

 REWOUND ..\data\DEWATER-LGR\deworg7_chd.ba6
 FILE TYPE:BAS6   UNIT   22

 REWOUND ..\data\DEWATER-LGR\deworg7_chd.bc6
 FILE TYPE:BCF6   UNIT   23

 REWOUND ..\data\DEWATER-LGR\deworg7.pcg
 FILE TYPE:PCG   UNIT   24

 REWOUND ..\data\DEWATER-LGR\deworg7_chd.gwm
 FILE TYPE:GWM   UNIT   25

 BAS -- BASIC PACKAGE, VERSION 7, 5/2/2005 INPUT READ FROM UNIT   22

 DISCRETIZATION INPUT DATA READ FROM UNIT   21
 #DEWATER-LGR Sample Problem, child DIS file
 #December, 2007
    1 LAYERS        85 ROWS        64 COLUMNS
    1 STRESS PERIOD(S) IN SIMULATION
 MODEL TIME UNIT IS DAYS
 MODEL LENGTH UNIT IS UNDEFINED
  Confining bed flag for each layer:
   0

                     DELR =   14.2857    

                     DELC =   14.2857    

 TOP ELEVATION OF LAYER 1 =   100.000    

   MODEL LAYER BOTTOM EL. =   100.000     FOR LAYER   1


 STRESS PERIOD     LENGTH       TIME STEPS     MULTIPLIER FOR DELT    SS FLAG
 ----------------------------------------------------------------------------
        1         1000.000          1                    1.000         SS

 STEADY-STATE SIMULATION



 
 #DEWATER-LGR Sample Problem, child BAS6 file, 7:1 refinement                    
 #December, 2007                                                                 
 THE FREE FORMAT OPTION HAS BEEN SELECTED



                     BOUNDARY ARRAY FOR LAYER   1
 READING ON UNIT   22 WITH FORMAT: (20I4)              

                1           2           3           4           5           6           7           8           9          10
               11          12          13          14          15          16          17          18          19          20
               21          22          23          24          25          26          27          28          29          30
               31          32          33          34          35          36          37          38          39          40
               41          42          43          44          45          46          47          48          49          50
               51          52          53          54          55          56          57          58          59          60
               61          62          63          64
 ............................................................................................................................
   1          -59         -59         -59         -59         -59         -59         -59         -59         -59         -59
              -59         -59         -59         -59         -59         -59         -59         -59         -59         -59
              -59         -59         -59         -59         -59         -59         -59         -59         -59         -59
              -59         -59         -59         -59         -59         -59         -59         -59         -59         -59
              -59         -59         -59         -59         -59         -59         -59         -59         -59         -59
              -59         -59         -59         -59         -59         -59         -59         -59         -59         -59
              -59         -59         -59         -59
   2          -59           1           1           1           1           1           1           1           1           1
                1           1           1           1           1           1           1           1           1           1
                1           1           1           1           1           1           1           1           1           1
                1           1           1           1           1           1           1           1           1           1
                1           1           1           1           1           1           1           1           1           1
                1           1           1           1           1           1           1           1           1           1
                1           1           1         -59
   3          -59           1           1           1           1           1           1           1           1           1
                1           1           1           1           1           1           1           1           1           1
                1           1           1           1           1           1           1           1           1           1
                1           1           1           1           1           1           1           1           1           1
                1           1           1           1           1           1           1           1           1           1
                1           1           1           1           1           1           1           1           1           1
                1           1           1         -59
   4          -59           1           1           1           1           1           1           1           1           1
                1           1           1           1           1           1           1           1           1           1
                1           1           1           1           1           1           1           1           1           1
                1           1           1           1           1           1           1           1           1           1
                1           1           1           1           1           1           1           1           1           1
                1           1           1           1           1           1           1           1           1           1
                1           1           1         -59
   5          -59           1           1           1           1           1           1           1           1           1
                1           1           1           1           1           1           1           1           1           1
                1           1           1           1           1           1           1           1           1           1
                1           1           1           1           1           1           1           1           1           1
                1           1           1           1           1           1           1           1           1           1
                1           1           1           1           1           1           1           1           1           1
                1           1           1         -59
   6          -59           1           1           1           1           1           1           1           1           1
                1           1           1           1           1           1           1           1           1           1
                1           1           1           1           1           1           1           1           1           1
                1           1           1           1           1           1           1           1           1           1
                1           1           1           1           1           1           1           1           1           1
                1           1           1           1           1           1           1           1           1           1
                1           1           1         -59
   7          -59           1           1           1           1           1           1           1           1           1
                1           1           1           1           1           1           1           1           1           1
                1           1           1           1           1           1           1           1           1           1
                1           1           1           1           1           1           1           1           1           1
                1           1           1           1           1           1           1           1           1           1
                1           1           1           1           1           1           1           1           1           1
                1           1           1         -59
   8          -59           1           1           1           1           1           1           1           1           1
                1           1           1           1           1           1           1           1           1           1
                1           1           1           1           1           1           1           1           1           1
                1           1           1           1           1           1           1           1           1           1
                1           1           1           1           1           1           1           1           1           1
                1           1           1           1           1           1           1           1           1           1
                1           1           1         -59
   9          -59           1           1           1           1           1           1           1           1           1
                1           1           1           1           1           1           1           1           1           1
                1           1           1           1           1           1           1           1           1           1
                1           1           1           1           1           1           1           1           1           1
                1           1           1           1           1           1           1           1           1           1
                1           1           1           1           1           1           1           1           1           1
                1           1           1         -59
  10          -59           1           1           1           1           1           1           1           1           1
                1           1           1           1           1           1           1           1           1           1
                1           1           1           1           1           1           1           1           1           1
                1           1           1           1           1           1           1           1           1           1
                1           1           1           1           1           1           1           1           1           1
                1           1           1           1           1           1           1           1           1           1
                1           1           1         -59
  11          -59           1           1           1           1           1           1           1           1           1
                1           1           1           1           1           1           1           1           1           1
                1           1           1           1           1           1           1           1           1           1
                1           1           1           1           1           1           1           1           1           1
                1           1           1           1           1           1           1           1           1           1
                1           1           1           1           1           1           1           1           1           1
                1           1           1         -59
  12          -59           1           1           1           1           1           1           1           1           1
                1           1           1           1           1           1           1           1           1           1
                1           1           1           1           1           1           1           1           1           1
                1           1           1           1           1           1           1           1           1           1
                1           1           1           1           1           1           1           1           1           1
                1           1           1           1           1           1           1           1           1           1
                1           1           1         -59
  13          -59           1           1           1           1           1           1           1           1           1
                1           1           1           1           1           1           1           1           1           1
                1           1           1           1           1           1           1           1           1           1
                1           1           1           1           1           1           1           1           1           1
                1           1           1           1           1           1           1           1           1           1
                1           1           1           1           1           1           1           1           1           1
                1           1           1         -59
  14          -59           1           1           1           1           1           1           1           1           1
                1           1           1           1           1           1           1           1           1           1
                1           1           1           1           1           1           1           1           1           1
                1           1           1           1           1           1           1           1           1           1
                1           1           1           1           1           1           1           1           1           1
                1           1           1           1           1           1           1           1           1           1
                1           1           1         -59
  15          -59           1           1           1           1           1           1           1           1           1
                1           1           1           1           1           1           1           1           1           1
                1           1           1           1           1           1           1           1           1           1
                1           1           1           1           1           1           1           1           1           1
                1           1           1           1           1           1           1           1           1           1
                1           1           1           1           1           1           1           1           1           1
                1           1           1         -59
  16          -59           1           1           1           1           1           1           1           1           1
                1           1           1           1           1           1           1           1           1           1
                1           1           1           1           1           1           1           1           1           1
                1           1           1           1           1           1           1           1           1           1
                1           1           1           1           1           1           1           1           1           1
                1           1           1           1           1           1           1           1           1           1
                1           1           1         -59
  17          -59           1           1           1           1           1           1           1           1           1
                1           1           1           1           1           1           1           1           1           1
                1           1           1           1           1           1           1           1           1           1
                1           1           1           1           1           1           1           1           1           1
                1           1           1           1           1           1           1           1           1           1
                1           1           1           1           1           1           1           1           1           1
                1           1           1         -59
  18          -59           1           1           1           1           1           1           1           1           1
                1           1           1           1           1           1           1           1           1           1
                1           1           1           1           1           1           1           1           1           1
                1           1           1           1           1           1           1           1           1           1
                1           1           1           1           1           1           1           1           1           1
                1           1           1           1           1           1           1           1           1           1
                1           1           1         -59
  19          -59           1           1           1           1           1           1           1           1           1
                1           1           1           1           1           1           1           1           1           1
                1           1           1           1           1           1           1           1           1           1
                1           1           1           1           1           1           1           1           1           1
                1           1           1           1           1           1           1           1           1           1
                1           1           1           1           1           1           1           1           1           1
                1           1           1         -59
  20          -59           1           1           1           1           1           1           1           1           1
                1           1           1           1           1           1           1           1           1           1
                1           1           1           1           1           1           1           1           1           1
                1           1           1           1           1           1           1           1           1           1
                1           1           1           1           1           1           1           1           1           1
                1           1           1           1           1           1           1           1           1           1
                1           1           1         -59
  21          -59           1           1           1           1           1           1           1           1           1
                1           1           1           1           1           1           1           1           1           1
                1           1           1           1           1           1           1           1           1           1
                1           1           1           1           1           1           1           1           1           1
                1           1           1           1           1           1           1           1           1           1
                1           1           1           1           1           1           1           1           1           1
                1           1           1         -59
  22          -59           1           1           1           1           1           1           1           1           1
                1           1           1           1           1           1           1           1           1           1
                1           1           1           1           1           1           1           1           1           1
                1           1           1           1           1           1           1           1           1           1
                1           1           1           1           1           1           1           1           1           1
                1           1           1           1           1           1           1           1           1           1
                1           1           1         -59
  23          -59           1           1           1           1           1           1           1           1           1
                1           1           1           1           1           1           1           1           1           1
                1           1           1           1           1           1           1           1           1           1
                1           1           1           1           1           1           1           1           1           1
                1           1           1           1           1           1           1           1           1           1
                1           1           1           1           1           1           1           1           1           1
                1           1           1         -59
  24          -59           1           1           1           1           1           1           1           1           1
                1           1           1           1           1           1           1           1           1           1
                1           1           1           1           1           1           1           1           1           1
                1           1           1           1           1           1           1           1           1           1
                1           1           1           1           1           1           1           1           1           1
                1           1           1           1           1           1           1           1           1           1
                1           1           1         -59
  25          -59           1           1           1           1           1           1           1           1           1
                1           1           1           1           1           1           1           1           1           1
                1           1           1           1           1           1           1           1           1           1
                1           1           1           1           1           1           1           1           1           1
                1           1           1           1           1           1           1           1           1           1
                1           1           1           1           1           1           1           1           1           1
                1           1           1         -59
  26          -59           1           1           1           1           1           1           1           1           1
                1           1           1           1           1           1           1           1           1           1
                1           1           1           1           1           1           1           1           1           1
                1           1           1           1           1           1           1           1           1           1
                1           1           1           1           1           1           1           1           1           1
                1           1           1           1           1           1           1           1           1           1
                1           1           1         -59
  27          -59           1           1           1           1           1           1           1           1           1
                1           1           1           1           1           1           1           1           1           1
                1           1           1           1           1           1           1           1           1           1
                1           1           1           1           1           1           1           1           1           1
                1           1           1           1           1           1           1           1           1           1
                1           1           1           1           1           1           1           1           1           1
                1           1           1         -59
  28          -59           1           1           1           1           1           1           1           1           1
                1           1           1           1           1           1           1           1           1           1
                1           1           1           1           1           1           1           1           1           1
                1           1           1           1           1           1           1           1           1           1
                1           1           1           1           1           1           1           1           1           1
                1           1           1           1           1           1           1           1           1           1
                1           1           1         -59
  29          -59           1           1           1           1           1           1           1           1           1
                1           1           1           1           1           1           1           1           1           1
                1           1           1           1           1           1           1           1           1           1
                1           1           1           1           1           1           1           1           1           1
                1           1           1           1           1           1           1           1           1           1
                1           1           1           1           1           1           1           1           1           1
                1           1           1         -59
  30          -59           1           1           1           1           1           1           1           1           1
                1           1           1           1           1           1           1           1           1           1
                1           1           1           1           1           1           1           1           1           1
                1           1           1           1           1           1           1           1           1           1
                1           1           1           1           1           1           1           1           1           1
                1           1           1           1           1           1           1           1           1           1
                1           1           1         -59
  31          -59           1           1           1           1           1           1           1           1           1
                1           1           1           1           1           1           1           1           1           1
                1           1           1           1           1           1           1           1           1           1
                1           1           1           1           1           1           1           1           1           1
                1           1           1           1           1           1           1           1           1           1
                1           1           1           1           1           1           1           1           1           1
                1           1           1         -59
  32          -59           1           1           1           1           1           1           1           1           1
                1           1           1           1           1           1           1           1           1           1
                1           1           1           1           1           1           1           1           1           1
                1           1           1           1           1           1           1           1           1           1
                1           1           1           1           1           1           1           1           1           1
                1           1           1           1           1           1           1           1           1           1
                1           1           1         -59
  33          -59           1           1           1           1           1           1           1           1           1
                1           1           1           1           1           1           1           1           1           1
                1           1           1           1           1           1           1           1           1           1
                1           1           1           1           1           1           1           1           1           1
                1           1           1           1           1           1           1           1           1           1
                1           1           1           1           1           1           1           1           1           1
                1           1           1         -59
  34          -59           1           1           1           1           1           1           1           1           1
                1           1           1           1           1           1           1           1           1           1
                1           1           1           1           1           1           1           1           1           1
                1           1           1           1           1           1           1           1           1           1
                1           1           1           1           1           1           1           1           1           1
                1           1           1           1           1           1           1           1           1           1
                1           1           1         -59
  35          -59           1           1           1           1           1           1           1           1           1
                1           1           1           1           1           1           1           1           1           1
                1           1           1           1           1           1           1           1           1           1
                1           1           1           1           1           1           1           1           1           1
                1           1           1           1           1           1           1           1           1           1
                1           1           1           1           1           1           1           1           1           1
                1           1           1         -59
  36          -59           1           1           1           1           1           1           1           1           1
                1           1           1           1           1           1           1           1           1           1
                1           1           1           1           1           1           1           1           1           1
                1           1           1           1           1           1           1           1           1           1
                1           1           1           1           1           1           1           1           1           1
                1           1           1           1           1           1           1           1           1           1
                1           1           1         -59
  37          -59           1           1           1           1           1           1           1           1           1
                1           1           1           1           1           1           1           1           1           1
                1           1           1           1           1           1           1           1           1           1
                1           1           1           1           1           1           1           1           1           1
                1           1           1           1           1           1           1           1           1           1
                1           1           1           1           1           1           1           1           1           1
                1           1           1         -59
  38          -59           1           1           1           1           1           1           1           1           1
                1           1           1           1           1           1           1           1           1           1
                1           1           1           1           1           1           1           1           1           1
                1           1           1           1           1           1           1           1           1           1
                1           1           1           1           1           1           1           1           1           1
                1           1           1           1           1           1           1           1           1           1
                1           1           1         -59
  39          -59           1           1           1           1           1           1           1           1           1
                1           1           1           1           1           1           1           1           1           1
                1           1           1           1           1           1           1           1           1           1
                1           1           1           1           1           1           1           1           1           1
                1           1           1           1           1           1           1           1           1           1
                1           1           1           1           1           1           1           1           1           1
                1           1           1         -59
  40          -59           1           1           1           1           1           1           1           1           1
                1           1           1           1           1           1           1           1           1           1
                1           1           1           1           1           1           1           1           1           1
                1           1           1           1           1           1           1           1           1           1
                1           1           1           1           1           1           1           1           1           1
                1           1           1           1           1           1           1           1           1           1
                1           1           1         -59
  41          -59           1           1           1           1           1           1           1           1           1
                1           1           1           1           1           1           1           1           1           1
                1           1           1           1           1           1           1           1           1           1
                1           1           1           1           1           1           1           1           1           1
                1           1           1           1           1           1           1           1           1           1
                1           1           1           1           1           1           1           1           1           1
                1           1           1         -59
  42          -59           1           1           1           1           1           1           1           1           1
                1           1           1           1           1           1           1           1           1           1
                1           1           1           1           1           1           1           1           1           1
                1           1           1           1           1           1           1           1           1           1
                1           1           1           1           1           1           1           1           1           1
                1           1           1           1           1           1           1           1           1           1
                1           1           1         -59
  43          -59           1           1           1           1           1           1           1           1           1
                1           1           1           1           1           1           1           1           1           1
                1           1           1           1           1           1           1           1           1           1
                1           1           1           1           1           1           1           1           1           1
                1           1           1           1           1           1           1           1           1           1
                1           1           1           1           1           1           1           1           1           1
                1           1           1         -59
  44          -59           1           1           1           1           1           1           1           1           1
                1           1           1           1           1           1           1           1           1           1
                1           1           1           1           1           1           1           1           1           1
                1           1           1           1           1           1           1           1           1           1
                1           1           1           1           1           1           1           1           1           1
                1           1           1           1           1           1           1           1           1           1
                1           1           1         -59
  45          -59           1           1           1           1           1           1           1           1           1
                1           1           1           1           1           1           1           1           1           1
                1           1           1           1           1           1           1           1           1           1
                1           1           1           1           1           1           1           1           1           1
                1           1           1           1           1           1           1           1           1           1
                1           1           1           1           1           1           1           1           1           1
                1           1           1         -59
  46          -59           1           1           1           1           1           1           1           1           1
                1           1           1           1           1           1           1           1           1           1
                1           1           1           1           1           1           1           1           1           1
                1           1           1           1           1           1           1           1           1           1
                1           1           1           1           1           1           1           1           1           1
                1           1           1           1           1           1           1           1           1           1
                1           1           1         -59
  47          -59           1           1           1           1           1           1           1           1           1
                1           1           1           1           1           1           1           1           1           1
                1           1           1           1           1           1           1           1           1           1
                1           1           1           1           1           1           1           1           1           1
                1           1           1           1           1           1           1           1           1           1
                1           1           1           1           1           1           1           1           1           1
                1           1           1         -59
  48          -59           1           1           1           1           1           1           1           1           1
                1           1           1           1           1           1           1           1           1           1
                1           1           1           1           1           1           1           1           1           1
                1           1           1           1           1           1           1           1           1           1
                1           1           1           1           1           1           1           1           1           1
                1           1           1           1           1           1           1           1           1           1
                1           1           1         -59
  49          -59           1           1           1           1           1           1           1           1           1
                1           1           1           1           1           1           1           1           1           1
                1           1           1           1           1           1           1           1           1           1
                1           1           1           1           1           1           1           1           1           1
                1           1           1           1           1           1           1           1           1           1
                1           1           1           1           1           1           1           1           1           1
                1           1           1         -59
  50          -59           1           1           1           1           1           1           1           1           1
                1           1           1           1           1           1           1           1           1           1
                1           1           1           1           1           1           1           1           1           1
                1           1           1           1           1           1           1           1           1           1
                1           1           1           1           1           1           1           1           1           1
                1           1           1           1           1           1           1           1           1           1
                1           1           1         -59
  51          -59           1           1           1           1           1           1           1           1           1
                1           1           1           1           1           1           1           1           1           1
                1           1           1           1           1           1           1           1           1           1
                1           1           1           1           1           1           1           1           1           1
                1           1           1           1           1           1           1           1           1           1
                1           1           1           1           1           1           1           1           1           1
                1           1           1         -59
  52          -59           1           1           1           1           1           1           1           1           1
                1           1           1           1           1           1           1           1           1           1
                1           1           1           1           1           1           1           1           1           1
                1           1           1           1           1           1           1           1           1           1
                1           1           1           1           1           1           1           1           1           1
                1           1           1           1           1           1           1           1           1           1
                1           1           1         -59
  53          -59           1           1           1           1           1           1           1           1           1
                1           1           1           1           1           1           1           1           1           1
                1           1           1           1           1           1           1           1           1           1
                1           1           1           1           1           1           1           1           1           1
                1           1           1           1           1           1           1           1           1           1
                1           1           1           1           1           1           1           1           1           1
                1           1           1         -59
  54          -59           1           1           1           1           1           1           1           1           1
                1           1           1           1           1           1           1           1           1           1
                1           1           1           1           1           1           1           1           1           1
                1           1           1           1           1           1           1           1           1           1
                1           1           1           1           1           1           1           1           1           1
                1           1           1           1           1           1           1           1           1           1
                1           1           1         -59
  55          -59           1           1           1           1           1           1           1           1           1
                1           1           1           1           1           1           1           1           1           1
                1           1           1           1           1           1           1           1           1           1
                1           1           1           1           1           1           1           1           1           1
                1           1           1           1           1           1           1           1           1           1
                1           1           1           1           1           1           1           1           1           1
                1           1           1         -59
  56          -59           1           1           1           1           1           1           1           1           1
                1           1           1           1           1           1           1           1           1           1
                1           1           1           1           1           1           1           1           1           1
                1           1           1           1           1           1           1           1           1           1
                1           1           1           1           1           1           1           1           1           1
                1           1           1           1           1           1           1           1           1           1
                1           1           1         -59
  57          -59           1           1           1           1           1           1           1           1           1
                1           1           1           1           1           1           1           1           1           1
                1           1           1           1           1           1           1           1           1           1
                1           1           1           1           1           1           1           1           1           1
                1           1           1           1           1           1           1           1           1           1
                1           1           1           1           1           1           1           1           1           1
                1           1           1         -59
  58          -59           1           1           1           1           1           1           1           1           1
                1           1           1           1           1           1           1           1           1           1
                1           1           1           1           1           1           1           1           1           1
                1           1           1           1           1           1           1           1           1           1
                1           1           1           1           1           1           1           1           1           1
                1           1           1           1           1           1           1           1           1           1
                1           1           1         -59
  59          -59           1           1           1           1           1           1           1           1           1
                1           1           1           1           1           1           1           1           1           1
                1           1           1           1           1           1           1           1           1           1
                1           1           1           1           1           1           1           1           1           1
                1           1           1           1           1           1           1           1           1           1
                1           1           1           1           1           1           1           1           1           1
                1           1           1         -59
  60          -59           1           1           1           1           1           1           1           1           1
                1           1           1           1           1           1           1           1           1           1
                1           1           1           1           1           1           1           1           1           1
                1           1           1           1           1           1           1           1           1           1
                1           1           1           1           1           1           1           1           1           1
                1           1           1           1           1           1           1           1           1           1
                1           1           1         -59
  61          -59           1           1           1           1           1           1           1           1           1
                1           1           1           1           1           1           1           1           1           1
                1           1           1           1           1           1           1           1           1           1
                1           1           1           1           1           1           1           1           1           1
                1           1           1           1           1           1           1           1           1           1
                1           1           1           1           1           1           1           1           1           1
                1           1           1         -59
  62          -59           1           1           1           1           1           1           1           1           1
                1           1           1           1           1           1           1           1           1           1
                1           1           1           1           1           1           1           1           1           1
                1           1           1           1           1           1           1           1           1           1
                1           1           1           1           1           1           1           1           1           1
                1           1           1           1           1           1           1           1           1           1
                1           1           1         -59
  63          -59           1           1           1           1           1           1           1           1           1
                1           1           1           1           1           1           1           1           1           1
                1           1           1           1           1           1           1           1           1           1
                1           1           1           1           1           1           1           1           1           1
                1           1           1           1           1           1           1           1           1           1
                1           1           1           1           1           1           1           1           1           1
                1           1           1         -59
  64          -59           1           1           1           1           1           1           1           1           1
                1           1           1           1           1           1           1           1           1           1
                1           1           1           1           1           1           1           1           1           1
                1           1           1           1           1           1           1           1           1           1
                1           1           1           1           1           1           1           1           1           1
                1           1           1           1           1           1           1           1           1           1
                1           1           1         -59
  65          -59           1           1           1           1           1           1           1           1           1
                1           1           1           1           1           1           1           1           1           1
                1           1           1           1           1           1           1           1           1           1
                1           1           1           1           1           1           1           1           1           1
                1           1           1           1           1           1           1           1           1           1
                1           1           1           1           1           1           1           1           1           1
                1           1           1         -59
  66          -59           1           1           1           1           1           1           1           1           1
                1           1           1           1           1           1           1           1           1           1
                1           1           1           1           1           1           1           1           1           1
                1           1           1           1           1           1           1           1           1           1
                1           1           1           1           1           1           1           1           1           1
                1           1           1           1           1           1           1           1           1           1
                1           1           1         -59
  67          -59           1           1           1           1           1           1           1           1           1
                1           1           1           1           1           1           1           1           1           1
                1           1           1           1           1           1           1           1           1           1
                1           1           1           1           1           1           1           1           1           1
                1           1           1           1           1           1           1           1           1           1
                1           1           1           1           1           1           1           1           1           1
                1           1           1         -59
  68          -59           1           1           1           1           1           1           1           1           1
                1           1           1           1           1           1           1           1           1           1
                1           1           1           1           1           1           1           1           1           1
                1           1           1           1           1           1           1           1           1           1
                1           1           1           1           1           1           1           1           1           1
                1           1           1           1           1           1           1           1           1           1
                1           1           1         -59
  69          -59           1           1           1           1           1           1           1           1           1
                1           1           1           1           1           1           1           1           1           1
                1           1           1           1           1           1           1           1           1           1
                1           1           1           1           1           1           1           1           1           1
                1           1           1           1           1           1           1           1           1           1
                1           1           1           1           1           1           1           1           1           1
                1           1           1         -59
  70          -59           1           1           1           1           1           1           1           1           1
                1           1           1           1           1           1           1           1           1           1
                1           1           1           1           1           1           1           1           1           1
                1           1           1           1           1           1           1           1           1           1
                1           1           1           1           1           1           1           1           1           1
                1           1           1           1           1           1           1           1           1           1
                1           1           1         -59
  71          -59           1           1           1           1           1           1           1           1           1
                1           1           1           1           1           1           1           1           1           1
                1           1           1           1           1           1           1           1           1           1
                1           1           1           1           1           1           1           1           1           1
                1           1           1           1           1           1           1           1           1           1
                1           1           1           1           1           1           1           1           1           1
                1           1           1         -59
  72          -59           1           1           1           1           1           1           1           1           1
                1           1           1           1           1           1           1           1           1           1
                1           1           1           1           1           1           1           1           1           1
                1           1           1           1           1           1           1           1           1           1
                1           1           1           1           1           1           1           1           1           1
                1           1           1           1           1           1           1           1           1           1
                1           1           1         -59
  73          -59           1           1           1           1           1           1           1           1           1
                1           1           1           1           1           1           1           1           1           1
                1           1           1           1           1           1           1           1           1           1
                1           1           1           1           1           1           1           1           1           1
                1           1           1           1           1           1           1           1           1           1
                1           1           1           1           1           1           1           1           1           1
                1           1           1         -59
  74          -59           1           1           1           1           1           1           1           1           1
                1           1           1           1           1           1           1           1           1           1
                1           1           1           1           1           1           1           1           1           1
                1           1           1           1           1           1           1           1           1           1
                1           1           1           1           1           1           1           1           1           1
                1           1           1           1           1           1           1           1           1           1
                1           1           1         -59
  75          -59           1           1           1           1           1           1           1           1           1
                1           1           1           1           1           1           1           1           1           1
                1           1           1           1           1           1           1           1           1           1
                1           1           1           1           1           1           1           1           1           1
                1           1           1           1           1           1           1           1           1           1
                1           1           1           1           1           1           1           1           1           1
                1           1           1         -59
  76          -59           1           1           1           1           1           1           1           1           1
                1           1           1           1           1           1           1           1           1           1
                1           1           1           1           1           1           1           1           1           1
                1           1           1           1           1           1           1           1           1           1
                1           1           1           1           1           1           1           1           1           1
                1           1           1           1           1           1           1           1           1           1
                1           1           1         -59
  77          -59           1           1           1           1           1           1           1           1           1
                1           1           1           1           1           1           1           1           1           1
                1           1           1           1           1           1           1           1           1           1
                1           1           1           1           1           1           1           1           1           1
                1           1           1           1           1           1           1           1           1           1
                1           1           1           1           1           1           1           1           1           1
                1           1           1         -59
  78          -59           1           1           1           1           1           1           1           1           1
                1           1           1           1           1           1           1           1           1           1
                1           1           1           1           1           1           1           1           1           1
                1           1           1           1           1           1           1           1           1           1
                1           1           1           1           1           1           1           1           1           1
                1           1           1           1           1           1           1           1           1           1
                1           1           1         -59
  79          -59           1           1           1           1           1           1           1           1           1
                1           1           1           1           1           1           1           1           1           1
                1           1           1           1           1           1           1           1           1           1
                1           1           1           1           1           1           1           1           1           1
                1           1           1           1           1           1           1           1           1           1
                1           1           1           1           1           1           1           1           1           1
                1           1           1         -59
  80          -59           1           1           1           1           1           1           1           1           1
                1           1           1           1           1           1           1           1           1           1
                1           1           1           1           1           1           1           1           1           1
                1           1           1           1           1           1           1           1           1           1
                1           1           1           1           1           1           1           1           1           1
                1           1           1           1           1           1           1           1           1           1
                1           1           1         -59
  81          -59           1           1           1           1           1           1           1           1           1
                1           1           1           1           1           1           1           1           1           1
                1           1           1           1           1           1           1           1           1           1
                1           1           1           1           1           1           1           1           1           1
                1           1           1           1           1           1           1           1           1           1
                1           1           1           1           1           1           1           1           1           1
                1           1           1         -59
  82          -59           1           1           1           1           1           1           1           1           1
                1           1           1           1           1           1           1           1           1           1
                1           1           1           1           1           1           1           1           1           1
                1           1           1           1           1           1           1           1           1           1
                1           1           1           1           1           1           1           1           1           1
                1           1           1           1           1           1           1           1           1           1
                1           1           1         -59
  83          -59           1           1           1           1           1           1           1           1           1
                1           1           1           1           1           1           1           1           1           1
                1           1           1           1           1           1           1           1           1           1
                1           1           1           1           1           1           1           1           1           1
                1           1           1           1           1           1           1           1           1           1
                1           1           1           1           1           1           1           1           1           1
                1           1           1         -59
  84          -59           1           1           1           1           1           1           1           1           1
                1           1           1           1           1           1           1           1           1           1
                1           1           1           1           1           1           1           1           1           1
                1           1           1           1           1           1           1           1           1           1
                1           1           1           1           1           1           1           1           1           1
                1           1           1           1           1           1           1           1           1           1
                1           1           1         -59
  85          -59         -59         -59         -59         -59         -59         -59         -59         -59         -59
              -59         -59         -59         -59         -59         -59         -59         -59         -59         -59
              -59         -59         -59         -59         -59         -59         -59         -59         -59         -59
              -59         -59         -59         -59         -59         -59         -59         -59         -59         -59
              -59         -59         -59         -59         -59         -59         -59         -59         -59         -59
              -59         -59         -59         -59         -59         -59         -59         -59         -59         -59
              -59         -59         -59         -59

 AQUIFER HEAD WILL BE SET TO  0.0000     AT ALL NO-FLOW NODES (IBOUND=0).



                       INITIAL HEAD FOR LAYER   1
 READING ON UNIT   22 WITH FORMAT: (10F13.0)           

            1           2           3           4           5           6           7           8           9          10
           11          12          13          14          15          16          17          18          19          20
           21          22          23          24          25          26          27          28          29          30
           31          32          33          34          35          36          37          38          39          40
           41          42          43          44          45          46          47          48          49          50
           51          52          53          54          55          56          57          58          59          60
           61          62          63          64
 ........................................................................................................................
   1    70.00       70.00       70.00       70.00       70.00       70.00       70.00       70.00       70.00       70.00    
        70.00       70.00       70.00       70.00       70.00       70.00       70.00       70.00       70.00       70.00    
        70.00       70.00       70.00       70.00       70.00       70.00       70.00       70.00       70.00       70.00    
        70.00       70.00       70.00       70.00       70.00       70.00       70.00       70.00       70.00       70.00    
        70.00       70.00       70.00       70.00       70.00       70.00       70.00       70.00       70.00       70.00    
        70.00       70.00       70.00       70.00       70.00       70.00       70.00       70.00       70.00       70.00    
        70.00       70.00       70.00       70.00    
   2    70.00       70.00       70.00       70.00       70.00       70.00       70.00       70.00       70.00       70.00    
        70.00       70.00       70.00       70.00       70.00       70.00       70.00       70.00       70.00       70.00    
        70.00       70.00       70.00       70.00       70.00       70.00       70.00       70.00       70.00       70.00    
        70.00       70.00       70.00       70.00       70.00       70.00       70.00       70.00       70.00       70.00    
        70.00       70.00       70.00       70.00       70.00       70.00       70.00       70.00       70.00       70.00    
        70.00       70.00       70.00       70.00       70.00       70.00       70.00       70.00       70.00       70.00    
        70.00       70.00       70.00       70.00    
   3    70.00       70.00       70.00       70.00       70.00       70.00       70.00       70.00       70.00       70.00    
        70.00       70.00       70.00       70.00       70.00       70.00       70.00       70.00       70.00       70.00    
        70.00       70.00       70.00       70.00       70.00       70.00       70.00       70.00       70.00       70.00    
        70.00       70.00       70.00       70.00       70.00       70.00       70.00       70.00       70.00       70.00    
        70.00       70.00       70.00       70.00       70.00       70.00       70.00       70.00       70.00       70.00    
        70.00       70.00       70.00       70.00       70.00       70.00       70.00       70.00       70.00       70.00    
        70.00       70.00       70.00       70.00    
   4    70.00       70.00       70.00       70.00       70.00       70.00       70.00       70.00       70.00       70.00    
        70.00       70.00       70.00       70.00       70.00       70.00       70.00       70.00       70.00       70.00    
        70.00       70.00       70.00       70.00       70.00       70.00       70.00       70.00       70.00       70.00    
        70.00       70.00       70.00       70.00       70.00       70.00       70.00       70.00       70.00       70.00    
        70.00       70.00       70.00       70.00       70.00       70.00       70.00       70.00       70.00       70.00    
        70.00       70.00       70.00       70.00       70.00       70.00       70.00       70.00       70.00       70.00    
        70.00       70.00       70.00       70.00    
   5    70.00       70.00       70.00       70.00       70.00       70.00       70.00       70.00       70.00       70.00    
        70.00       70.00       70.00       70.00       70.00       70.00       70.00       70.00       70.00       70.00    
        70.00       70.00       70.00       70.00       70.00       70.00       70.00       70.00       70.00       70.00    
        70.00       70.00       70.00       70.00       70.00       70.00       70.00       70.00       70.00       70.00    
        70.00       70.00       70.00       70.00       70.00       70.00       70.00       70.00       70.00       70.00    
        70.00       70.00       70.00       70.00       70.00       70.00       70.00       70.00       70.00       70.00    
        70.00       70.00       70.00       70.00    
   6    70.00       70.00       70.00       70.00       70.00       70.00       70.00       70.00       70.00       70.00    
        70.00       70.00       70.00       70.00       70.00       70.00       70.00       70.00       70.00       70.00    
        70.00       70.00       70.00       70.00       70.00       70.00       70.00       70.00       70.00       70.00    
        70.00       70.00       70.00       70.00       70.00       70.00       70.00       70.00       70.00       70.00    
        70.00       70.00       70.00       70.00       70.00       70.00       70.00       70.00       70.00       70.00    
        70.00       70.00       70.00       70.00       70.00       70.00       70.00       70.00       70.00       70.00    
        70.00       70.00       70.00       70.00    
   7    70.00       70.00       70.00       70.00       70.00       70.00       70.00       70.00       70.00       70.00    
        70.00       70.00       70.00       70.00       70.00       70.00       70.00       70.00       70.00       70.00    
        70.00       70.00       70.00       70.00       70.00       70.00       70.00       70.00       70.00       70.00    
        70.00       70.00       70.00       70.00       70.00       70.00       70.00       70.00       70.00       70.00    
        70.00       70.00       70.00       70.00       70.00       70.00       70.00       70.00       70.00       70.00    
        70.00       70.00       70.00       70.00       70.00       70.00       70.00       70.00       70.00       70.00    
        70.00       70.00       70.00       70.00    
   8    70.00       70.00       70.00       70.00       70.00       70.00       70.00       70.00       70.00       70.00    
        70.00       70.00       70.00       70.00       70.00       70.00       70.00       70.00       70.00       70.00    
        70.00       70.00       70.00       70.00       70.00       70.00       70.00       70.00       70.00       70.00    
        70.00       70.00       70.00       70.00       70.00       70.00       70.00       70.00       70.00       70.00    
        70.00       70.00       70.00       70.00       70.00       70.00       70.00       70.00       70.00       70.00    
        70.00       70.00       70.00       70.00       70.00       70.00       70.00       70.00       70.00       70.00    
        70.00       70.00       70.00       70.00    
[...]
        44.76       42.60       37.90       42.53       44.61       45.83       46.68       47.34       47.87       48.31    
        48.70       49.05       49.36       49.65       49.91       50.15       50.38       50.60       50.80       51.00    
        51.18       51.36       51.53       51.68    
  65    60.37       60.06       59.75       59.44       59.12       58.81       58.51       58.20       57.89       57.58    
        57.27       56.97       56.66       56.36       56.05       55.75       55.44       55.14       54.84       54.54    
        54.23       53.93       53.62       53.32       53.01       52.70       52.39       52.07       51.74       51.40    
        51.06       50.70       50.32       49.92       49.49       49.02       48.50       47.91       47.21       46.37    
        45.32       44.00       42.69       43.92       45.16       46.14       46.90       47.51       48.01       48.45    
        48.83       49.17       49.47       49.75       50.01       50.25       50.47       50.68       50.88       51.07    
        51.26       51.43       51.60       51.76    
  66    60.45       60.14       59.83       59.52       59.22       58.91       58.60       58.30       57.99       57.69    
        57.38       57.08       56.78       56.48       56.18       55.87       55.57       55.27       54.97       54.67    
        54.37       54.07       53.77       53.47       53.16       52.86       52.54       52.23       51.90       51.57    
        51.23       50.87       50.50       50.11       49.69       49.24       48.75       48.21       47.60       46.91    
        46.15       45.40       44.92       45.31       45.98       46.66       47.26       47.78       48.24       48.64    
        48.99       49.31       49.60       49.87       50.12       50.35       50.57       50.78       50.97       51.16    
        51.34       51.51       51.68       51.85    
  67    60.53       60.22       59.92       59.61       59.31       59.00       58.70       58.40       58.10       57.79    
        57.49       57.19       56.89       56.60       56.30       56.00       55.70       55.41       55.11       54.81    
        54.52       54.22       53.92       53.62       53.32       53.01       52.71       52.39       52.07       51.75    
        51.41       51.07       50.71       50.33       49.93       49.51       49.06       48.57       48.06       47.51    
        46.97       46.52       46.28       46.43       46.80       47.24       47.70       48.12       48.51       48.87    
        49.19       49.49       49.76       50.02       50.25       50.48       50.69       50.88       51.07       51.26    
        51.43       51.60       51.76       51.93    
  68    60.61       60.30       60.00       59.70       59.40       59.10       58.80       58.50       58.20       57.90    
        57.60       57.31       57.01       56.72       56.42       56.13       55.83       55.54       55.25       54.95    
        54.66       54.37       54.07       53.77       53.48       53.18       52.87       52.57       52.25       51.94    
        51.61       51.27       50.93       50.57       50.20       49.81       49.40       48.97       48.54       48.11    
        47.72       47.41       47.26       47.32       47.53       47.83       48.16       48.50       48.82       49.13    
        49.42       49.69       49.94       50.18       50.40       50.61       50.81       51.00       51.18       51.36    
        51.53       51.69       51.85       52.01    
  69    60.69       60.39       60.09       59.79       59.49       59.19       58.89       58.60       58.30       58.01    
        57.71       57.42       57.13       56.83       56.54       56.25       55.96       55.67       55.38       55.09    
        54.80       54.51       54.22       53.93       53.64       53.34       53.05       52.74       52.44       52.13    
        51.81       51.49       51.16       50.82       50.47       50.12       49.75       49.38       49.02       48.68    
        48.38       48.15       48.04       48.05       48.18       48.38       48.63       48.89       49.15       49.41    
        49.67       49.91       50.13       50.35       50.56       50.76       50.94       51.13       51.30       51.47    
        51.63       51.79       51.94       52.09    
  70    60.77       60.47       60.17       59.87       59.58       59.28       58.99       58.70       58.40       58.11    
        57.82       57.53       57.24       56.95       56.66       56.38       56.09       55.80       55.52       55.23    
        54.95       54.66       54.37       54.09       53.80       53.51       53.22       52.93       52.63       52.33    
        52.03       51.72       51.40       51.09       50.76       50.44       50.11       49.79       49.48       49.20    
        48.96       48.78       48.69       48.68       48.75       48.89       49.07       49.27       49.49       49.71    
        49.92       50.13       50.34       50.54       50.73       50.91       51.09       51.26       51.42       51.58    
        51.73       51.88       52.03       52.17    
  71    60.85       60.55       60.25       59.96       59.67       59.38       59.08       58.79       58.50       58.21    
        57.93       57.64       57.35       57.07       56.78       56.50       56.22       55.93       55.65       55.37    
        55.09       54.81       54.53       54.25       53.96       53.68       53.40       53.11       52.82       52.53    
        52.24       51.95       51.65       51.35       51.05       50.76       50.46       50.18       49.92       49.68    
        49.48       49.33       49.24       49.22       49.26       49.36       49.49       49.65       49.82       50.00    
        50.18       50.37       50.55       50.73       50.90       51.07       51.23       51.39       51.55       51.70    
        51.84       51.99       52.12       52.25    
  72    60.92       60.63       60.34       60.05       59.76       59.47       59.18       58.89       58.60       58.32    
        58.03       57.75       57.47       57.18       56.90       56.62       56.34       56.07       55.79       55.51    
        55.23       54.96       54.68       54.41       54.13       53.85       53.58       53.30       53.02       52.74    
        52.46       52.18       51.90       51.62       51.34       51.07       50.81       50.56       50.32       50.12    
        49.94       49.82       49.73       49.71       49.72       49.79       49.88       50.00       50.14       50.29    
        50.45       50.61       50.77       50.93       51.08       51.24       51.39       51.54       51.68       51.82    
        51.96       52.09       52.22       52.35    
  73    61.00       60.71       60.42       60.13       59.84       59.56       59.27       58.99       58.70       58.42    
        58.14       57.86       57.58       57.30       57.02       56.75       56.47       56.20       55.92       55.65    
        55.38       55.11       54.83       54.56       54.29       54.02       53.76       53.49       53.22       52.95    
        52.68       52.41       52.15       51.89       51.63       51.38       51.14       50.91       50.70       50.52    
        50.37       50.25       50.18       50.14       50.14       50.18       50.25       50.34       50.45       50.58    
        50.71       50.84       50.98       51.12       51.27       51.41       51.54       51.68       51.81       51.95    
        52.08       52.20       52.33       52.45    
  74    61.07       60.79       60.50       60.21       59.93       59.65       59.36       59.08       58.80       58.52    
        58.24       57.96       57.69       57.41       57.14       56.87       56.60       56.32       56.06       55.79    
        55.52       55.25       54.99       54.72       54.46       54.20       53.93       53.67       53.41       53.15    
        52.90       52.64       52.39       52.15       51.91       51.68       51.46       51.25       51.06       50.90    
        50.76       50.65       50.57       50.53       50.52       50.55       50.59       50.66       50.75       50.85    
        50.96       51.08       51.20       51.32       51.45       51.58       51.70       51.83       51.95       52.07    
        52.20       52.32       52.44       52.56    
  75    61.15       60.86       60.58       60.30       60.01       59.73       59.45       59.17       58.90       58.62    
        58.35       58.07       57.80       57.53       57.26       56.99       56.72       56.45       56.19       55.92    
        55.66       55.40       55.14       54.88       54.62       54.37       54.11       53.86       53.61       53.36    
        53.11       52.87       52.63       52.40       52.18       51.96       51.76       51.57       51.40       51.24    
        51.12       51.01       50.94       50.89       50.88       50.89       50.92       50.97       51.04       51.12    
        51.21       51.31       51.41       51.52       51.63       51.75       51.86       51.98       52.09       52.20    
        52.32       52.43       52.54       52.66    
  76    61.22       60.94       60.66       60.38       60.10       59.82       59.54       59.27       58.99       58.72    
        58.45       58.18       57.91       57.64       57.37       57.11       56.84       56.58       56.32       56.06    
        55.80       55.54       55.29       55.04       54.79       54.54       54.29       54.04       53.80       53.56    
        53.33       53.09       52.87       52.65       52.44       52.24       52.05       51.87       51.71       51.57    
        51.45       51.35       51.28       51.23       51.20       51.20       51.22       51.26       51.31       51.37    
        51.45       51.53       51.62       51.72       51.81       51.92       52.02       52.12       52.23       52.33    
        52.44       52.55       52.65       52.76    
  77    61.30       61.02       60.74       60.46       60.18       59.91       59.63       59.36       59.09       58.82    
        58.55       58.28       58.01       57.75       57.49       57.22       56.96       56.71       56.45       56.19    
        55.94       55.69       55.44       55.19       54.95       54.70       54.46       54.23       53.99       53.76    
        53.53       53.31       53.10       52.89       52.69       52.50       52.32       52.15       52.00       51.87    
        51.76       51.66       51.59       51.54       51.51       51.50       51.50       51.53       51.57       51.62    
        51.68       51.75       51.82       51.91       51.99       52.08       52.18       52.27       52.37       52.46    
        52.56       52.66       52.76       52.86    
  78    61.37       61.09       60.81       60.54       60.26       59.99       59.72       59.45       59.18       58.91    
        58.65       58.38       58.12       57.86       57.60       57.34       57.08       56.83       56.58       56.33    
        56.08       55.83       55.59       55.34       55.10       54.87       54.63       54.40       54.18       53.95    
        53.74       53.52       53.32       53.12       52.93       52.75       52.58       52.42       52.28       52.16    
        52.05       51.95       51.88       51.83       51.79       51.77       51.77       51.79       51.81       51.85    
        51.90       51.96       52.02       52.09       52.17       52.25       52.33       52.42       52.50       52.59    
        52.68       52.77       52.87       52.96    
  79    61.44       61.16       60.89       60.62       60.34       60.07       59.81       59.54       59.27       59.01    
        58.74       58.48       58.22       57.96       57.71       57.45       57.20       56.95       56.70       56.46    
        56.21       55.97       55.73       55.49       55.26       55.03       54.80       54.58       54.36       54.14    
        53.93       53.73       53.53       53.34       53.16       52.99       52.83       52.68       52.54       52.42    
        52.32       52.23       52.15       52.10       52.06       52.03       52.03       52.03       52.05       52.07    
        52.11       52.16       52.21       52.28       52.34       52.41       52.48       52.56       52.64       52.72    
        52.80       52.89       52.97       53.06    
  80    61.50       61.23       60.96       60.69       60.42       60.16       59.89       59.63       59.36       59.10    
        58.84       58.58       58.33       58.07       57.82       57.57       57.32       57.07       56.83       56.58    
        56.34       56.11       55.87       55.64       55.41       55.19       54.97       54.75       54.54       54.33    
        54.13       53.93       53.74       53.56       53.38       53.22       53.06       52.92       52.79       52.68    
        52.57       52.48       52.41       52.35       52.31       52.28       52.26       52.26       52.27       52.29    
        52.32       52.36       52.40       52.45       52.51       52.57       52.63       52.70       52.77       52.85    
        52.92       53.00       53.08       53.16    
  81    61.57       61.30       61.04       60.77       60.50       60.24       59.97       59.71       59.45       59.19    
        58.93       58.68       58.43       58.17       57.92       57.68       57.43       57.19       56.95       56.71    
        56.47       56.24       56.01       55.78       55.56       55.34       55.13       54.91       54.71       54.51    
        54.31       54.12       53.94       53.76       53.59       53.44       53.29       53.15       53.03       52.91    
        52.81       52.73       52.65       52.59       52.55       52.51       52.49       52.48       52.48       52.49    
        52.51       52.54       52.58       52.62       52.67       52.72       52.78       52.84       52.91       52.97    
        53.04       53.11       53.18       53.25    
  82    61.64       61.37       61.11       60.84       60.58       60.32       60.05       59.80       59.54       59.28    
        59.03       58.78       58.52       58.28       58.03       57.78       57.54       57.30       57.07       56.83    
        56.60       56.37       56.15       55.93       55.71       55.49       55.28       55.08       54.87       54.68    
        54.49       54.31       54.13       53.96       53.80       53.64       53.50       53.37       53.25       53.14    
        53.04       52.95       52.88       52.82       52.77       52.73       52.71       52.69       52.68       52.69    
        52.70       52.72       52.75       52.79       52.83       52.87       52.92       52.98       53.04       53.10    
        53.16       53.22       53.29       53.35    
  83    61.70       61.44       61.18       60.92       60.66       60.39       60.13       59.88       59.62       59.37    
        59.12       58.87       58.62       58.37       58.13       57.89       57.65       57.42       57.18       56.95    
        56.72       56.50       56.28       56.06       55.85       55.64       55.43       55.23       55.03       54.85    
        54.66       54.49       54.32       54.15       53.99       53.84       53.71       53.58       53.46       53.36    
        53.26       53.17       53.09       53.03       52.98       52.94       52.91       52.89       52.88       52.87    
        52.88       52.90       52.92       52.95       52.98       53.02       53.06       53.11       53.16       53.22    
        53.27       53.33       53.39       53.45    
  84    61.77       61.51       61.25       60.99       60.73       60.47       60.21       59.96       59.71       59.46    
        59.21       58.96       58.72       58.47       58.23       57.99       57.76       57.53       57.30       57.07    
        56.84       56.62       56.41       56.20       55.99       55.78       55.58       55.38       55.19       55.01    
        54.83       54.66       54.50       54.33       54.17       54.02       53.90       53.78       53.67       53.56    
        53.46       53.37       53.28       53.23       53.18       53.14       53.11       53.08       53.06       53.04    
        53.05       53.07       53.08       53.11       53.13       53.16       53.19       53.24       53.29       53.34    
        53.39       53.44       53.50       53.55    
  85    61.84       61.58       61.32       61.06       60.80       60.55       60.29       60.03       59.79       59.54    
        59.30       59.05       58.81       58.56       58.32       58.09       57.87       57.64       57.41       57.19    
        56.96       56.73       56.53       56.33       56.13       55.93       55.73       55.52       55.32       55.16    
        55.00       54.83       54.67       54.51       54.35       54.18       54.08       53.97       53.87       53.77    
        53.66       53.56       53.45       53.42       53.38       53.34       53.31       53.27       53.23       53.19    
        53.21       53.23       53.24       53.26       53.28       53.30       53.31       53.36       53.41       53.46    
        53.50       53.55       53.60       53.65    
1
  VOLUMETRIC BUDGET FOR ENTIRE MODEL AT END OF TIME STEP  1 IN STRESS PERIOD   1
  ------------------------------------------------------------------------------

     CUMULATIVE VOLUMES      L**3       RATES FOR THIS TIME STEP      L**3/T
     ------------------                 ------------------------

           IN:                                      IN:
           ---                                      ---
             STORAGE =           0.0000               STORAGE =           0.0000
       CONSTANT HEAD =     2857054.9745         CONSTANT HEAD =        2857.0550
        MANAGED FLOW =           0.0000          MANAGED FLOW =           0.0000

            TOTAL IN =     2857054.9745              TOTAL IN =        2857.0550

          OUT:                                     OUT:
          ----                                     ----
             STORAGE =           0.0000               STORAGE =           0.0000
       CONSTANT HEAD =           0.0000         CONSTANT HEAD =           0.0000
        MANAGED FLOW =     2857054.9891          MANAGED FLOW =        2857.0550

           TOTAL OUT =     2857054.9891             TOTAL OUT =        2857.0550

            IN - OUT =      -1.4592E-02              IN - OUT =      -1.4592E-05

 PERCENT DISCREPANCY =           0.00     PERCENT DISCREPANCY =           0.00






          TIME SUMMARY AT END OF TIME STEP   1 IN STRESS PERIOD    1
                    SECONDS     MINUTES      HOURS       DAYS        YEARS
                    -----------------------------------------------------------
   TIME STEP LENGTH 8.64000E+07 1.44000E+06  24000.      1000.0      2.7379    
 STRESS PERIOD TIME 8.64000E+07 1.44000E+06  24000.      1000.0      2.7379    
         TOTAL TIME 8.64000E+07 1.44000E+06  24000.      1000.0      2.7379    
1
1
  FLUX ACROSS PARENT-CHILD INTERFACE AT TIME STEP  1 IN STRESS PERIOD    1
  ------------------------------------------------------------------------

     CUMULATIVE VOLUMES      L**3       RATES FOR THIS TIME STEP      L**3/T
     ------------------                 ------------------------

   TOTAL IN TO CHILD =     2857054.9713     TOTAL IN TO CHILD =        2857.0550

 TOTAL OUT TO PARENT =           0.0000   TOTAL OUT TO PARENT =           0.0000


 Run end date and time (yyyy/mm/dd hh:mm:ss): 2013/03/21  9:19:07
 Elapsed run time:  3.924 Seconds

