                                  MODFLOW-LGR2     
      U.S. GEOLOGICAL SURVEY MODULAR FINITE-DIFFERENCE GROUNDWATER FLOW MODEL
                 VERSION GWM-2005 1.5.1 081214,FROM MF-LGR V2.0


     FINAL FLOW PROCESS SIMULATION FOR GWM                                                                                                                                                                   


 REWOUND ..\data\DEWATER-LGR\deworg7_chd.dis
 FILE TYPE:DIS   UNIT   21

 REWOUND ..\data\DEWATER-LGR\deworg7_chd.ba6
 FILE TYPE:BAS6   UNIT   22

 REWOUND ..\data\DEWATER-LGR\deworg7_chd.bc6
 FILE TYPE:BCF6   UNIT   23

 REWOUND ..\data\DEWATER-LGR\deworg7.pcg
 FILE TYPE:PCG   UNIT   24

 REWOUND ..\data\DEWATER-LGR\deworg7_chd.gwm
 FILE TYPE:GWM   UNIT   25

 BAS -- BASIC PACKAGE, VERSION 7, 5/2/2005 INPUT READ FROM UNIT   22

 DISCRETIZATION INPUT DATA READ FROM UNIT   21
 #DEWATER-LGR Sample Problem, child DIS file
 #updated August 2013
    1 LAYERS        77 ROWS        56 COLUMNS
    1 STRESS PERIOD(S) IN SIMULATION
 MODEL TIME UNIT IS DAYS
 MODEL LENGTH UNIT IS UNDEFINED
  Confining bed flag for each layer:
   0

                     DELR =   14.2857    

                     DELC =   14.2857    

 TOP ELEVATION OF LAYER 1 =   100.000    

   MODEL LAYER BOTTOM EL. =   0.00000     FOR LAYER   1


 STRESS PERIOD     LENGTH       TIME STEPS     MULTIPLIER FOR DELT    SS FLAG
 ----------------------------------------------------------------------------
        1         1000.000          1                    1.000         SS

 STEADY-STATE SIMULATION



 
 #DEWATER-LGR2Sample Problem, child BAS6 file, 7:1 refinement                    
 #updated August 2013                                                            
 THE FREE FORMAT OPTION HAS BEEN SELECTED



                     BOUNDARY ARRAY FOR LAYER   1
 READING ON UNIT   22 WITH FORMAT: (20I4)              

                1           2           3           4           5           6           7           8           9          10
               11          12          13          14          15          16          17          18          19          20
               21          22          23          24          25          26          27          28          29          30
               31          32          33          34          35          36          37          38          39          40
               41          42          43          44          45          46          47          48          49          50
               51          52          53          54          55          56
 ............................................................................................................................
   1           59          59          59          59          59          59          59          59          59          59
               59          59          59          59          59          59          59          59          59          59
               59          59          59          59          59          59          59          59          59          59
               59          59          59          59          59          59          59          59          59          59
               59          59          59          59          59          59          59          59          59          59
               59          59          59          59          59          59
   2           59           1           1           1           1           1           1           1           1           1
                1           1           1           1           1           1           1           1           1           1
                1           1           1           1           1           1           1           1           1           1
                1           1           1           1           1           1           1           1           1           1
                1           1           1           1           1           1           1           1           1           1
                1           1           1           1           1          59
   3           59           1           1           1           1           1           1           1           1           1
                1           1           1           1           1           1           1           1           1           1
                1           1           1           1           1           1           1           1           1           1
                1           1           1           1           1           1           1           1           1           1
                1           1           1           1           1           1           1           1           1           1
                1           1           1           1           1          59
   4           59           1           1           1           1           1           1           1           1           1
                1           1           1           1           1           1           1           1           1           1
                1           1           1           1           1           1           1           1           1           1
                1           1           1           1           1           1           1           1           1           1
                1           1           1           1           1           1           1           1           1           1
                1           1           1           1           1          59
   5           59           1           1           1           1           1           1           1           1           1
                1           1           1           1           1           1           1           1           1           1
                1           1           1           1           1           1           1           1           1           1
                1           1           1           1           1           1           1           1           1           1
                1           1           1           1           1           1           1           1           1           1
                1           1           1           1           1          59
   6           59           1           1           1           1           1           1           1           1           1
                1           1           1           1           1           1           1           1           1           1
                1           1           1           1           1           1           1           1           1           1
                1           1           1           1           1           1           1           1           1           1
                1           1           1           1           1           1           1           1           1           1
                1           1           1           1           1          59
   7           59           1           1           1           1           1           1           1           1           1
                1           1           1           1           1           1           1           1           1           1
                1           1           1           1           1           1           1           1           1           1
                1           1           1           1           1           1           1           1           1           1
                1           1           1           1           1           1           1           1           1           1
                1           1           1           1           1          59
   8           59           1           1           1           1           1           1           1           1           1
                1           1           1           1           1           1           1           1           1           1
                1           1           1           1           1           1           1           1           1           1
                1           1           1           1           1           1           1           1           1           1
                1           1           1           1           1           1           1           1           1           1
                1           1           1           1           1          59
   9           59           1           1           1           1           1           1           1           1           1
                1           1           1           1           1           1           1           1           1           1
                1           1           1           1           1           1           1           1           1           1
                1           1           1           1           1           1           1           1           1           1
                1           1           1           1           1           1           1           1           1           1
                1           1           1           1           1          59
  10           59           1           1           1           1           1           1           1           1           1
                1           1           1           1           1           1           1           1           1           1
                1           1           1           1           1           1           1           1           1           1
                1           1           1           1           1           1           1           1           1           1
                1           1           1           1           1           1           1           1           1           1
                1           1           1           1           1          59
  11           59           1           1           1           1           1           1           1           1           1
                1           1           1           1           1           1           1           1           1           1
                1           1           1           1           1           1           1           1           1           1
                1           1           1           1           1           1           1           1           1           1
                1           1           1           1           1           1           1           1           1           1
                1           1           1           1           1          59
  12           59           1           1           1           1           1           1           1           1           1
                1           1           1           1           1           1           1           1           1           1
                1           1           1           1           1           1           1           1           1           1
                1           1           1           1           1           1           1           1           1           1
                1           1           1           1           1           1           1           1           1           1
                1           1           1           1           1          59
  13           59           1           1           1           1           1           1           1           1           1
                1           1           1           1           1           1           1           1           1           1
                1           1           1           1           1           1           1           1           1           1
                1           1           1           1           1           1           1           1           1           1
                1           1           1           1           1           1           1           1           1           1
                1           1           1           1           1          59
  14           59           1           1           1           1           1           1           1           1           1
                1           1           1           1           1           1           1           1           1           1
                1           1           1           1           1           1           1           1           1           1
                1           1           1           1           1           1           1           1           1           1
                1           1           1           1           1           1           1           1           1           1
                1           1           1           1           1          59
  15           59           1           1           1           1           1           1           1           1           1
                1           1           1           1           1           1           1           1           1           1
                1           1           1           1           1           1           1           1           1           1
                1           1           1           1           1           1           1           1           1           1
                1           1           1           1           1           1           1           1           1           1
                1           1           1           1           1          59
  16           59           1           1           1           1           1           1           1           1           1
                1           1           1           1           1           1           1           1           1           1
                1           1           1           1           1           1           1           1           1           1
                1           1           1           1           1           1           1           1           1           1
                1           1           1           1           1           1           1           1           1           1
                1           1           1           1           1          59
  17           59           1           1           1           1           1           1           1           1           1
                1           1           1           1           1           1           1           1           1           1
                1           1           1           1           1           1           1           1           1           1
                1           1           1           1           1           1           1           1           1           1
                1           1           1           1           1           1           1           1           1           1
                1           1           1           1           1          59
  18           59           1           1           1           1           1           1           1           1           1
                1           1           1           1           1           1           1           1           1           1
                1           1           1           1           1           1           1           1           1           1
                1           1           1           1           1           1           1           1           1           1
                1           1           1           1           1           1           1           1           1           1
                1           1           1           1           1          59
  19           59           1           1           1           1           1           1           1           1           1
                1           1           1           1           1           1           1           1           1           1
                1           1           1           1           1           1           1           1           1           1
                1           1           1           1           1           1           1           1           1           1
                1           1           1           1           1           1           1           1           1           1
                1           1           1           1           1          59
  20           59           1           1           1           1           1           1           1           1           1
                1           1           1           1           1           1           1           1           1           1
                1           1           1           1           1           1           1           1           1           1
                1           1           1           1           1           1           1           1           1           1
                1           1           1           1           1           1           1           1           1           1
                1           1           1           1           1          59
  21           59           1           1           1           1           1           1           1           1           1
                1           1           1           1           1           1           1           1           1           1
                1           1           1           1           1           1           1           1           1           1
                1           1           1           1           1           1           1           1           1           1
                1           1           1           1           1           1           1           1           1           1
                1           1           1           1           1          59
  22           59           1           1           1           1           1           1           1           1           1
                1           1           1           1           1           1           1           1           1           1
                1           1           1           1           1           1           1           1           1           1
                1           1           1           1           1           1           1           1           1           1
                1           1           1           1           1           1           1           1           1           1
                1           1           1           1           1          59
  23           59           1           1           1           1           1           1           1           1           1
                1           1           1           1           1           1           1           1           1           1
                1           1           1           1           1           1           1           1           1           1
                1           1           1           1           1           1           1           1           1           1
                1           1           1           1           1           1           1           1           1           1
                1           1           1           1           1          59
  24           59           1           1           1           1           1           1           1           1           1
                1           1           1           1           1           1           1           1           1           1
                1           1           1           1           1           1           1           1           1           1
                1           1           1           1           1           1           1           1           1           1
                1           1           1           1           1           1           1           1           1           1
                1           1           1           1           1          59
  25           59           1           1           1           1           1           1           1           1           1
                1           1           1           1           1           1           1           1           1           1
                1           1           1           1           1           1           1           1           1           1
                1           1           1           1           1           1           1           1           1           1
                1           1           1           1           1           1           1           1           1           1
                1           1           1           1           1          59
  26           59           1           1           1           1           1           1           1           1           1
                1           1           1           1           1           1           1           1           1           1
                1           1           1           1           1           1           1           1           1           1
                1           1           1           1           1           1           1           1           1           1
                1           1           1           1           1           1           1           1           1           1
                1           1           1           1           1          59
  27           59           1           1           1           1           1           1           1           1           1
                1           1           1           1           1           1           1           1           1           1
                1           1           1           1           1           1           1           1           1           1
                1           1           1           1           1           1           1           1           1           1
                1           1           1           1           1           1           1           1           1           1
                1           1           1           1           1          59
  28           59           1           1           1           1           1           1           1           1           1
                1           1           1           1           1           1           1           1           1           1
                1           1           1           1           1           1           1           1           1           1
                1           1           1           1           1           1           1           1           1           1
                1           1           1           1           1           1           1           1           1           1
                1           1           1           1           1          59
  29           59           1           1           1           1           1           1           1           1           1
                1           1           1           1           1           1           1           1           1           1
                1           1           1           1           1           1           1           1           1           1
                1           1           1           1           1           1           1           1           1           1
                1           1           1           1           1           1           1           1           1           1
                1           1           1           1           1          59
  30           59           1           1           1           1           1           1           1           1           1
                1           1           1           1           1           1           1           1           1           1
                1           1           1           1           1           1           1           1           1           1
                1           1           1           1           1           1           1           1           1           1
                1           1           1           1           1           1           1           1           1           1
                1           1           1           1           1          59
  31           59           1           1           1           1           1           1           1           1           1
                1           1           1           1           1           1           1           1           1           1
                1           1           1           1           1           1           1           1           1           1
                1           1           1           1           1           1           1           1           1           1
                1           1           1           1           1           1           1           1           1           1
                1           1           1           1           1          59
  32           59           1           1           1           1           1           1           1           1           1
                1           1           1           1           1           1           1           1           1           1
                1           1           1           1           1           1           1           1           1           1
                1           1           1           1           1           1           1           1           1           1
                1           1           1           1           1           1           1           1           1           1
                1           1           1           1           1          59
  33           59           1           1           1           1           1           1           1           1           1
                1           1           1           1           1           1           1           1           1           1
                1           1           1           1           1           1           1           1           1           1
                1           1           1           1           1           1           1           1           1           1
                1           1           1           1           1           1           1           1           1           1
                1           1           1           1           1          59
  34           59           1           1           1           1           1           1           1           1           1
                1           1           1           1           1           1           1           1           1           1
                1           1           1           1           1           1           1           1           1           1
                1           1           1           1           1           1           1           1           1           1
                1           1           1           1           1           1           1           1           1           1
                1           1           1           1           1          59
  35           59           1           1           1           1           1           1           1           1           1
                1           1           1           1           1           1           1           1           1           1
                1           1           1           1           1           1           1           1           1           1
                1           1           1           1           1           1           1           1           1           1
                1           1           1           1           1           1           1           1           1           1
                1           1           1           1           1          59
  36           59           1           1           1           1           1           1           1           1           1
                1           1           1           1           1           1           1           1           1           1
                1           1           1           1           1           1           1           1           1           1
                1           1           1           1           1           1           1           1           1           1
                1           1           1           1           1           1           1           1           1           1
                1           1           1           1           1          59
  37           59           1           1           1           1           1           1           1           1           1
                1           1           1           1           1           1           1           1           1           1
                1           1           1           1           1           1           1           1           1           1
                1           1           1           1           1           1           1           1           1           1
                1           1           1           1           1           1           1           1           1           1
                1           1           1           1           1          59
  38           59           1           1           1           1           1           1           1           1           1
                1           1           1           1           1           1           1           1           1           1
                1           1           1           1           1           1           1           1           1           1
                1           1           1           1           1           1           1           1           1           1
                1           1           1           1           1           1           1           1           1           1
                1           1           1           1           1          59
  39           59           1           1           1           1           1           1           1           1           1
                1           1           1           1           1           1           1           1           1           1
                1           1           1           1           1           1           1           1           1           1
                1           1           1           1           1           1           1           1           1           1
                1           1           1           1           1           1           1           1           1           1
                1           1           1           1           1          59
  40           59           1           1           1           1           1           1           1           1           1
                1           1           1           1           1           1           1           1           1           1
                1           1           1           1           1           1           1           1           1           1
                1           1           1           1           1           1           1           1           1           1
                1           1           1           1           1           1           1           1           1           1
                1           1           1           1           1          59
  41           59           1           1           1           1           1           1           1           1           1
                1           1           1           1           1           1           1           1           1           1
                1           1           1           1           1           1           1           1           1           1
                1           1           1           1           1           1           1           1           1           1
                1           1           1           1           1           1           1           1           1           1
                1           1           1           1           1          59
  42           59           1           1           1           1           1           1           1           1           1
                1           1           1           1           1           1           1           1           1           1
                1           1           1           1           1           1           1           1           1           1
                1           1           1           1           1           1           1           1           1           1
                1           1           1           1           1           1           1           1           1           1
                1           1           1           1           1          59
  43           59           1           1           1           1           1           1           1           1           1
                1           1           1           1           1           1           1           1           1           1
                1           1           1           1           1           1           1           1           1           1
                1           1           1           1           1           1           1           1           1           1
                1           1           1           1           1           1           1           1           1           1
                1           1           1           1           1          59
  44           59           1           1           1           1           1           1           1           1           1
                1           1           1           1           1           1           1           1           1           1
                1           1           1           1           1           1           1           1           1           1
                1           1           1           1           1           1           1           1           1           1
                1           1           1           1           1           1           1           1           1           1
                1           1           1           1           1          59
  45           59           1           1           1           1           1           1           1           1           1
                1           1           1           1           1           1           1           1           1           1
                1           1           1           1           1           1           1           1           1           1
                1           1           1           1           1           1           1           1           1           1
                1           1           1           1           1           1           1           1           1           1
                1           1           1           1           1          59
  46           59           1           1           1           1           1           1           1           1           1
                1           1           1           1           1           1           1           1           1           1
                1           1           1           1           1           1           1           1           1           1
                1           1           1           1           1           1           1           1           1           1
                1           1           1           1           1           1           1           1           1           1
                1           1           1           1           1          59
  47           59           1           1           1           1           1           1           1           1           1
                1           1           1           1           1           1           1           1           1           1
                1           1           1           1           1           1           1           1           1           1
                1           1           1           1           1           1           1           1           1           1
                1           1           1           1           1           1           1           1           1           1
                1           1           1           1           1          59
  48           59           1           1           1           1           1           1           1           1           1
                1           1           1           1           1           1           1           1           1           1
                1           1           1           1           1           1           1           1           1           1
                1           1           1           1           1           1           1           1           1           1
                1           1           1           1           1           1           1           1           1           1
                1           1           1           1           1          59
  49           59           1           1           1           1           1           1           1           1           1
                1           1           1           1           1           1           1           1           1           1
                1           1           1           1           1           1           1           1           1           1
                1           1           1           1           1           1           1           1           1           1
                1           1           1           1           1           1           1           1           1           1
                1           1           1           1           1          59
  50           59           1           1           1           1           1           1           1           1           1
                1           1           1           1           1           1           1           1           1           1
                1           1           1           1           1           1           1           1           1           1
                1           1           1           1           1           1           1           1           1           1
                1           1           1           1           1           1           1           1           1           1
                1           1           1           1           1          59
  51           59           1           1           1           1           1           1           1           1           1
                1           1           1           1           1           1           1           1           1           1
                1           1           1           1           1           1           1           1           1           1
                1           1           1           1           1           1           1           1           1           1
                1           1           1           1           1           1           1           1           1           1
                1           1           1           1           1          59
  52           59           1           1           1           1           1           1           1           1           1
                1           1           1           1           1           1           1           1           1           1
                1           1           1           1           1           1           1           1           1           1
                1           1           1           1           1           1           1           1           1           1
                1           1           1           1           1           1           1           1           1           1
                1           1           1           1           1          59
  53           59           1           1           1           1           1           1           1           1           1
                1           1           1           1           1           1           1           1           1           1
                1           1           1           1           1           1           1           1           1           1
                1           1           1           1           1           1           1           1           1           1
                1           1           1           1           1           1           1           1           1           1
                1           1           1           1           1          59
  54           59           1           1           1           1           1           1           1           1           1
                1           1           1           1           1           1           1           1           1           1
                1           1           1           1           1           1           1           1           1           1
                1           1           1           1           1           1           1           1           1           1
                1           1           1           1           1           1           1           1           1           1
                1           1           1           1           1          59
  55           59           1           1           1           1           1           1           1           1           1
                1           1           1           1           1           1           1           1           1           1
                1           1           1           1           1           1           1           1           1           1
                1           1           1           1           1           1           1           1           1           1
                1           1           1           1           1           1           1           1           1           1
                1           1           1           1           1          59
  56           59           1           1           1           1           1           1           1           1           1
                1           1           1           1           1           1           1           1           1           1
                1           1           1           1           1           1           1           1           1           1
                1           1           1           1           1           1           1           1           1           1
                1           1           1           1           1           1           1           1           1           1
                1           1           1           1           1          59
  57           59           1           1           1           1           1           1           1           1           1
                1           1           1           1           1           1           1           1           1           1
                1           1           1           1           1           1           1           1           1           1
                1           1           1           1           1           1           1           1           1           1
                1           1           1           1           1           1           1           1           1           1
                1           1           1           1           1          59
  58           59           1           1           1           1           1           1           1           1           1
                1           1           1           1           1           1           1           1           1           1
                1           1           1           1           1           1           1           1           1           1
                1           1           1           1           1           1           1           1           1           1
                1           1           1           1           1           1           1           1           1           1
                1           1           1           1           1          59
  59           59           1           1           1           1           1           1           1           1           1
                1           1           1           1           1           1           1           1           1           1
                1           1           1           1           1           1           1           1           1           1
                1           1           1           1           1           1           1           1           1           1
                1           1           1           1           1           1           1           1           1           1
                1           1           1           1           1          59
  60           59           1           1           1           1           1           1           1           1           1
                1           1           1           1           1           1           1           1           1           1
                1           1           1           1           1           1           1           1           1           1
                1           1           1           1           1           1           1           1           1           1
                1           1           1           1           1           1           1           1           1           1
                1           1           1           1           1          59
  61           59           1           1           1           1           1           1           1           1           1
                1           1           1           1           1           1           1           1           1           1
                1           1           1           1           1           1           1           1           1           1
                1           1           1           1           1           1           1           1           1           1
                1           1           1           1           1           1           1           1           1           1
                1           1           1           1           1          59
  62           59           1           1           1           1           1           1           1           1           1
                1           1           1           1           1           1           1           1           1           1
                1           1           1           1           1           1           1           1           1           1
                1           1           1           1           1           1           1           1           1           1
                1           1           1           1           1           1           1           1           1           1
                1           1           1           1           1          59
  63           59           1           1           1           1           1           1           1           1           1
                1           1           1           1           1           1           1           1           1           1
                1           1           1           1           1           1           1           1           1           1
                1           1           1           1           1           1           1           1           1           1
                1           1           1           1           1           1           1           1           1           1
                1           1           1           1           1          59
  64           59           1           1           1           1           1           1           1           1           1
                1           1           1           1           1           1           1           1           1           1
                1           1           1           1           1           1           1           1           1           1
                1           1           1           1           1           1           1           1           1           1
                1           1           1           1           1           1           1           1           1           1
                1           1           1           1           1          59
  65           59           1           1           1           1           1           1           1           1           1
                1           1           1           1           1           1           1           1           1           1
                1           1           1           1           1           1           1           1           1           1
                1           1           1           1           1           1           1           1           1           1
                1           1           1           1           1           1           1           1           1           1
                1           1           1           1           1          59
  66           59           1           1           1           1           1           1           1           1           1
                1           1           1           1           1           1           1           1           1           1
                1           1           1           1           1           1           1           1           1           1
                1           1           1           1           1           1           1           1           1           1
                1           1           1           1           1           1           1           1           1           1
                1           1           1           1           1          59
  67           59           1           1           1           1           1           1           1           1           1
                1           1           1           1           1           1           1           1           1           1
                1           1           1           1           1           1           1           1           1           1
                1           1           1           1           1           1           1           1           1           1
                1           1           1           1           1           1           1           1           1           1
                1           1           1           1           1          59
  68           59           1           1           1           1           1           1           1           1           1
                1           1           1           1           1           1           1           1           1           1
                1           1           1           1           1           1           1           1           1           1
                1           1           1           1           1           1           1           1           1           1
                1           1           1           1           1           1           1           1           1           1
                1           1           1           1           1          59
  69           59           1           1           1           1           1           1           1           1           1
                1           1           1           1           1           1           1           1           1           1
                1           1           1           1           1           1           1           1           1           1
                1           1           1           1           1           1           1           1           1           1
                1           1           1           1           1           1           1           1           1           1
                1           1           1           1           1          59
  70           59           1           1           1           1           1           1           1           1           1
                1           1           1           1           1           1           1           1           1           1
                1           1           1           1           1           1           1           1           1           1
                1           1           1           1           1           1           1           1           1           1
                1           1           1           1           1           1           1           1           1           1
                1           1           1           1           1          59
  71           59           1           1           1           1           1           1           1           1           1
                1           1           1           1           1           1           1           1           1           1
                1           1           1           1           1           1           1           1           1           1
                1           1           1           1           1           1           1           1           1           1
                1           1           1           1           1           1           1           1           1           1
                1           1           1           1           1          59
  72           59           1           1           1           1           1           1           1           1           1
                1           1           1           1           1           1           1           1           1           1
                1           1           1           1           1           1           1           1           1           1
                1           1           1           1           1           1           1           1           1           1
                1           1           1           1           1           1           1           1           1           1
                1           1           1           1           1          59
  73           59           1           1           1           1           1           1           1           1           1
                1           1           1           1           1           1           1           1           1           1
                1           1           1           1           1           1           1           1           1           1
                1           1           1           1           1           1           1           1           1           1
                1           1           1           1           1           1           1           1           1           1
                1           1           1           1           1          59
  74           59           1           1           1           1           1           1           1           1           1
                1           1           1           1           1           1           1           1           1           1
                1           1           1           1           1           1           1           1           1           1
                1           1           1           1           1           1           1           1           1           1
                1           1           1           1           1           1           1           1           1           1
                1           1           1           1           1          59
  75           59           1           1           1           1           1           1           1           1           1
                1           1           1           1           1           1           1           1           1           1
                1           1           1           1           1           1           1           1           1           1
                1           1           1           1           1           1           1           1           1           1
                1           1           1           1           1           1           1           1           1           1
                1           1           1           1           1          59
  76           59           1           1           1           1           1           1           1           1           1
                1           1           1           1           1           1           1           1           1           1
                1           1           1           1           1           1           1           1           1           1
                1           1           1           1           1           1           1           1           1           1
                1           1           1           1           1           1           1           1           1           1
                1           1           1           1           1          59
  77           59          59          59          59          59          59          59          59          59          59
               59          59          59          59          59          59          59          59          59          59
               59          59          59          59          59          59          59          59          59          59
               59          59          59          59          59          59          59          59          59          59
               59          59          59          59          59          59          59          59          59          59
               59          59          59          59          59          59

 AQUIFER HEAD WILL BE SET TO  0.0000     AT ALL NO-FLOW NODES (IBOUND=0).

             INITIAL HEAD =   70.0000     FOR LAYER   1

 DEFAULT OUTPUT CONTROL
 THE FOLLOWING OUTPUT COMES AT THE END OF EACH STRESS PERIOD:
 TOTAL VOLUMETRIC BUDGET
           HEAD

 BCF -- BLOCK-CENTERED FLOW PACKAGE, VERSION 7, 5/2/2005
         INPUT READ FROM UNIT 23
 STEADY-STATE SIMULATION
 HEAD AT CELLS THAT CONVERT TO DRY=   0.0000    
 WETTING CAPABILITY IS ACTIVE
 WETTING FACTOR=   1.00000     WETTING ITERATION INTERVAL=   1
 FLAG THAT SPECIFIES THE EQUATION TO USE FOR HEAD AT WETTED CELLS=   0
      LAYER  LAYER-TYPE CODE     INTERBLOCK T
      --------------------------------------------
         1            0          0 -- HARMONIC    

 COLUMN TO ROW ANISOTROPY =   1.00000    

     TRANSMIS. ALONG ROWS =   50.0000     FOR LAYER   1
1
                            STRESS PERIOD NO.    1, LENGTH =   1000.000    
                            -----------------------------------------------

                              NUMBER OF TIME STEPS =     1

                               MULTIPLIER FOR DELT =     1.000

                            INITIAL TIME STEP SIZE =   1000.000    

Flows at Managed Wells for Stress Period    1

 Well no.  Layer   Row   Col   Stress Rate
 ----------------------------------------------------
        1      1    18    25   -1053.197805184343    
        2      1    18    39   -99.76418141182957    
        3      1    25    32    0.000000000000000    
        4      1    32    25   -769.7596930673728    
        5      1    32    39    0.000000000000000    
        6      1    46    46    0.000000000000000    
        7      1    60    39   -929.6992770707014    
 ----------------------------------------------------
                      Total:   -2852.420956734247    
 
 SOLVING FOR HEAD 


    13 CALLS TO PCG ROUTINE FOR TIME STEP   1 IN STRESS PERIOD    1
    60 TOTAL ITERATIONS


    11 CALLS TO PCG ROUTINE FOR TIME STEP   1 IN STRESS PERIOD    1
    50 TOTAL ITERATIONS


    10 CALLS TO PCG ROUTINE FOR TIME STEP   1 IN STRESS PERIOD    1
    46 TOTAL ITERATIONS


    10 CALLS TO PCG ROUTINE FOR TIME STEP   1 IN STRESS PERIOD    1
    45 TOTAL ITERATIONS


    10 CALLS TO PCG ROUTINE FOR TIME STEP   1 IN STRESS PERIOD    1
    44 TOTAL ITERATIONS


    10 CALLS TO PCG ROUTINE FOR TIME STEP   1 IN STRESS PERIOD    1
    44 TOTAL ITERATIONS


     9 CALLS TO PCG ROUTINE FOR TIME STEP   1 IN STRESS PERIOD    1
    41 TOTAL ITERATIONS


     9 CALLS TO PCG ROUTINE FOR TIME STEP   1 IN STRESS PERIOD    1
    40 TOTAL ITERATIONS


     9 CALLS TO PCG ROUTINE FOR TIME STEP   1 IN STRESS PERIOD    1
    39 TOTAL ITERATIONS


     9 CALLS TO PCG ROUTINE FOR TIME STEP   1 IN STRESS PERIOD    1
    39 TOTAL ITERATIONS


     8 CALLS TO PCG ROUTINE FOR TIME STEP   1 IN STRESS PERIOD    1
    36 TOTAL ITERATIONS


     8 CALLS TO PCG ROUTINE FOR TIME STEP   1 IN STRESS PERIOD    1
    35 TOTAL ITERATIONS


     7 CALLS TO PCG ROUTINE FOR TIME STEP   1 IN STRESS PERIOD    1
    31 TOTAL ITERATIONS


     7 CALLS TO PCG ROUTINE FOR TIME STEP   1 IN STRESS PERIOD    1
    31 TOTAL ITERATIONS


     7 CALLS TO PCG ROUTINE FOR TIME STEP   1 IN STRESS PERIOD    1
    30 TOTAL ITERATIONS


     7 CALLS TO PCG ROUTINE FOR TIME STEP   1 IN STRESS PERIOD    1
    30 TOTAL ITERATIONS


     6 CALLS TO PCG ROUTINE FOR TIME STEP   1 IN STRESS PERIOD    1
    26 TOTAL ITERATIONS


     6 CALLS TO PCG ROUTINE FOR TIME STEP   1 IN STRESS PERIOD    1
    23 TOTAL ITERATIONS


     5 CALLS TO PCG ROUTINE FOR TIME STEP   1 IN STRESS PERIOD    1
    21 TOTAL ITERATIONS


     5 CALLS TO PCG ROUTINE FOR TIME STEP   1 IN STRESS PERIOD    1
    21 TOTAL ITERATIONS


     5 CALLS TO PCG ROUTINE FOR TIME STEP   1 IN STRESS PERIOD    1
    21 TOTAL ITERATIONS


     5 CALLS TO PCG ROUTINE FOR TIME STEP   1 IN STRESS PERIOD    1
    19 TOTAL ITERATIONS


     4 CALLS TO PCG ROUTINE FOR TIME STEP   1 IN STRESS PERIOD    1
    16 TOTAL ITERATIONS


     4 CALLS TO PCG ROUTINE FOR TIME STEP   1 IN STRESS PERIOD    1
    16 TOTAL ITERATIONS


     4 CALLS TO PCG ROUTINE FOR TIME STEP   1 IN STRESS PERIOD    1
    16 TOTAL ITERATIONS


     4 CALLS TO PCG ROUTINE FOR TIME STEP   1 IN STRESS PERIOD    1
    14 TOTAL ITERATIONS
1
              HEAD IN LAYER   1 AT END OF TIME STEP   1 IN STRESS PERIOD    1
  ---------------------------------------------------------------------------

            1           2           3           4           5           6           7           8           9          10
           11          12          13          14          15          16          17          18          19          20
           21          22          23          24          25          26          27          28          29          30
           31          32          33          34          35          36          37          38          39          40
           41          42          43          44          45          46          47          48          49          50
           51          52          53          54          55          56
 ........................................................................................................................
   1    57.97       57.64       57.32       56.99       56.67       56.35       56.03       55.71       55.40       55.09    
        54.78       54.48       54.19       53.90       53.62       53.35       53.08       52.83       52.59       52.37    
        52.15       51.96       51.77       51.60       51.45       51.32       51.21       51.12       51.04       50.98    
        50.92       50.88       50.86       50.86       50.86       50.87       50.89       50.91       50.94       50.99    
        51.04       51.09       51.15       51.21       51.27       51.34       51.41       51.49       51.56       51.64    
        51.72       51.81       51.89       51.97       52.06       52.15    
   2    57.88       57.55       57.22       56.89       56.56       56.23       55.90       55.58       55.26       54.94    
        54.63       54.32       54.01       53.72       53.42       53.14       52.87       52.61       52.36       52.12    
        51.90       51.70       51.51       51.34       51.19       51.06       50.95       50.86       50.78       50.72    
        50.68       50.65       50.63       50.63       50.64       50.66       50.69       50.72       50.77       50.82    
        50.87       50.93       51.00       51.07       51.14       51.21       51.29       51.37       51.46       51.54    
        51.63       51.71       51.80       51.89       51.98       52.08    
   3    57.80       57.46       57.12       56.78       56.45       56.11       55.78       55.44       55.11       54.79    
        54.46       54.14       53.83       53.52       53.22       52.93       52.64       52.37       52.11       51.87    
        51.64       51.43       51.23       51.06       50.91       50.78       50.67       50.58       50.51       50.46    
        50.42       50.40       50.39       50.40       50.42       50.45       50.48       50.53       50.58       50.64    
        50.70       50.77       50.84       50.92       51.00       51.08       51.17       51.26       51.35       51.44    
        51.53       51.62       51.71       51.81       51.90       52.00    
   4    57.71       57.36       57.02       56.68       56.33       55.99       55.65       55.31       54.97       54.63    
        54.30       53.97       53.64       53.32       53.01       52.70       52.40       52.12       51.85       51.59    
        51.35       51.13       50.93       50.76       50.60       50.47       50.36       50.28       50.22       50.17    
        50.14       50.13       50.14       50.16       50.19       50.22       50.27       50.33       50.39       50.46    
        50.53       50.61       50.69       50.77       50.86       50.95       51.04       51.14       51.23       51.33    
        51.43       51.53       51.63       51.73       51.83       51.93    
   5    57.62       57.27       56.92       56.57       56.22       55.87       55.52       55.17       54.82       54.47    
        54.13       53.78       53.45       53.11       52.79       52.47       52.16       51.86       51.57       51.30    
        51.05       50.82       50.61       50.43       50.28       50.14       50.04       49.96       49.90       49.87    
        49.85       49.85       49.87       49.90       49.94       49.99       50.05       50.12       50.19       50.27    
        50.35       50.44       50.53       50.62       50.72       50.82       50.92       51.02       51.12       51.22    
        51.33       51.43       51.54       51.64       51.75       51.85    
   6    57.53       57.18       56.82       56.46       56.10       55.74       55.38       55.03       54.67       54.31    
        53.95       53.60       53.25       52.90       52.56       52.22       51.90       51.58       51.28       50.99    
        50.73       50.49       50.27       50.08       49.92       49.79       49.69       49.62       49.57       49.55    
        49.55       49.56       49.59       49.63       49.69       49.75       49.82       49.90       49.99       50.07    
        50.17       50.27       50.37       50.47       50.58       50.68       50.79       50.90       51.01       51.12    
        51.23       51.34       51.45       51.56       51.67       51.77    
   7    57.45       57.09       56.72       56.36       55.99       55.62       55.25       54.88       54.51       54.15    
        53.78       53.41       53.04       52.68       52.32       51.97       51.62       51.29       50.97       50.67    
        50.38       50.13       49.90       49.70       49.54       49.41       49.31       49.25       49.22       49.21    
        49.22       49.25       49.30       49.36       49.42       49.50       49.59       49.68       49.78       49.88    
        49.98       50.09       50.20       50.32       50.43       50.55       50.66       50.78       50.90       51.01    
        51.13       51.24       51.36       51.47       51.59       51.70    
   8    57.36       56.99       56.62       56.25       55.88       55.50       55.12       54.74       54.36       53.98    
        53.60       53.22       52.84       52.46       52.08       51.71       51.34       50.99       50.64       50.32    
        50.01       49.74       49.49       49.29       49.12       48.99       48.90       48.85       48.83       48.84    
        48.88       48.93       48.99       49.07       49.15       49.25       49.35       49.45       49.56       49.68    
        49.79       49.91       50.04       50.16       50.28       50.41       50.53       50.66       50.78       50.91    
        51.03       51.15       51.27       51.39       51.51       51.62    
   9    57.28       56.90       56.53       56.15       55.76       55.38       54.99       54.60       54.21       53.82    
        53.42       53.03       52.63       52.23       51.83       51.44       51.05       50.67       50.30       49.95    
        49.62       49.32       49.05       48.83       48.66       48.53       48.46       48.42       48.42       48.46    
        48.51       48.59       48.67       48.77       48.87       48.98       49.10       49.22       49.34       49.47    
        49.60       49.73       49.87       50.00       50.14       50.27       50.41       50.54       50.67       50.80    
        50.93       51.06       51.18       51.31       51.43       51.55    
  10    57.20       56.82       56.43       56.05       55.66       55.26       54.87       54.47       54.06       53.66    
        53.25       52.83       52.42       52.00       51.58       51.16       50.75       50.34       49.94       49.55    
        49.19       48.86       48.57       48.33       48.15       48.03       47.97       47.96       47.99       48.05    
        48.13       48.23       48.35       48.47       48.59       48.72       48.85       48.98       49.12       49.26    
        49.41       49.55       49.70       49.84       49.99       50.13       50.28       50.42       50.56       50.70    
        50.83       50.96       51.10       51.22       51.35       51.48    
  11    57.12       56.73       56.34       55.95       55.55       55.15       54.74       54.33       53.92       53.50    
        53.08       52.65       52.21       51.77       51.33       50.89       50.44       50.00       49.56       49.14    
        48.73       48.36       48.04       47.77       47.58       47.47       47.43       47.45       47.51       47.61    
        47.74       47.87       48.01       48.16       48.30       48.45       48.60       48.74       48.90       49.05    
        49.21       49.37       49.53       49.69       49.84       50.00       50.15       50.30       50.45       50.59    
        50.74       50.87       51.01       51.14       51.28       51.41    
  12    57.04       56.65       56.25       55.85       55.45       55.04       54.62       54.20       53.78       53.35    
        52.91       52.46       52.01       51.55       51.09       50.61       50.14       49.65       49.17       48.70    
        48.24       47.82       47.44       47.14       46.93       46.83       46.83       46.89       47.01       47.16    
        47.33       47.50       47.67       47.84       48.01       48.18       48.34       48.50       48.67       48.84    
        49.01       49.19       49.36       49.53       49.70       49.87       50.03       50.19       50.34       50.49    
        50.64       50.79       50.93       51.07       51.20       51.34    
  13    56.97       56.57       56.17       55.76       55.35       54.93       54.51       54.08       53.64       53.20    
        52.75       52.29       51.82       51.34       50.85       50.34       49.83       49.31       48.78       48.25    
        47.72       47.22       46.77       46.41       46.18       46.10       46.15       46.29       46.48       46.69    
        46.91       47.13       47.34       47.54       47.73       47.91       48.08       48.26       48.44       48.62    
        48.81       49.00       49.19       49.38       49.56       49.74       49.91       50.08       50.24       50.40    
        50.55       50.70       50.85       50.99       51.13       51.27    
  14    56.91       56.50       56.09       55.68       55.26       54.84       54.40       53.96       53.52       53.06    
        52.59       52.12       51.63       51.13       50.62       50.09       49.54       48.97       48.39       47.79    
        47.18       46.57       46.01       45.56       45.28       45.24       45.39       45.63       45.92       46.21    
        46.50       46.76       47.01       47.24       47.45       47.64       47.83       48.01       48.20       48.40    
        48.61       48.82       49.03       49.23       49.43       49.62       49.80       49.97       50.14       50.31    
        50.47       50.62       50.77       50.92       51.07       51.21    
  15    56.84       56.43       56.02       55.60       55.18       54.74       54.30       53.85       53.40       52.93    
        52.45       51.96       51.46       50.94       50.40       49.84       49.26       48.65       48.01       47.33    
        46.62       45.88       45.15       44.52       44.15       44.20       44.52       44.93       45.35       45.74    
        46.10       46.42       46.70       46.96       47.18       47.39       47.58       47.76       47.95       48.17    
        48.41       48.64       48.87       49.09       49.30       49.50       49.69       49.87       50.05       50.22    
        50.38       50.54       50.70       50.85       51.00       51.15    
  16    56.79       56.37       55.95       55.53       55.10       54.66       54.21       53.75       53.29       52.81    
        52.32       51.82       51.30       50.77       50.21       49.63       49.01       48.37       47.67       46.92    
        46.09       45.18       44.20       43.23       42.57       42.91       43.56       44.22       44.81       45.31    
        45.74       46.11       46.43       46.70       46.94       47.15       47.33       47.49       47.67       47.93    
        48.21       48.47       48.72       48.96       49.18       49.39       49.59       49.78       49.96       50.14    
        50.31       50.47       50.63       50.79       50.94       51.09    
  17    56.73       56.32       55.89       55.46       55.03       54.58       54.13       53.66       53.19       52.71    
        52.21       51.69       51.16       50.61       50.04       49.44       48.80       48.12       47.39       46.57    
        45.64       44.56       43.23       41.62       40.01       41.29       42.59       43.59       44.35       44.96    
        45.44       45.85       46.19       46.49       46.73       46.94       47.10       47.21       47.31       47.67    
        48.01       48.32       48.59       48.84       49.08       49.29       49.50       49.69       49.88       50.06    
        50.24       50.40       50.57       50.73       50.88       51.03    
  18    56.68       56.26       55.84       55.40       54.96       54.51       54.05       53.58       53.10       52.61    
        52.11       51.58       51.05       50.49       49.90       49.29       48.64       47.94       47.18       46.34    
        45.36       44.17       42.56       39.99       34.56       39.67       41.91       43.19       44.06       44.71    
        45.23       45.65       46.01       46.31       46.57       46.77       46.92       46.95       46.69       47.42    
        47.86       48.20       48.49       48.75       48.98       49.21       49.42       49.62       49.81       49.99    
        50.17       50.34       50.51       50.67       50.82       50.98    
  19    56.64       56.22       55.79       55.35       54.91       54.45       53.99       53.52       53.03       52.53    
        52.02       51.49       50.95       50.38       49.79       49.17       48.52       47.82       47.07       46.23    
        45.29       44.19       42.86       41.23       39.62       40.91       42.21       43.21       43.99       44.60    
        45.10       45.52       45.88       46.19       46.45       46.67       46.85       46.97       47.08       47.45    
        47.81       48.12       48.41       48.67       48.91       49.13       49.35       49.55       49.74       49.93    
        50.11       50.28       50.45       50.61       50.77       50.93    
  20    56.61       56.19       55.75       55.31       54.86       54.40       53.94       53.46       52.97       52.47    
        51.95       51.42       50.87       50.30       49.71       49.09       48.44       47.76       47.03       46.24    
        45.38       44.45       43.44       42.45       41.79       42.13       42.79       43.47       44.07       44.60    
        45.06       45.45       45.80       46.11       46.38       46.62       46.82       47.01       47.22       47.50    
        47.80       48.08       48.36       48.61       48.85       49.07       49.29       49.49       49.68       49.87    
        50.05       50.23       50.40       50.57       50.73       50.89    
  21    56.59       56.16       55.72       55.28       54.82       54.36       53.89       53.41       52.92       52.41    
        51.90       51.36       50.81       50.24       49.65       49.04       48.40       47.74       47.04       46.31    
        45.55       44.77       44.01       43.35       42.97       43.03       43.35       43.79       44.24       44.67    
        45.07       45.43       45.77       46.07       46.34       46.59       46.82       47.04       47.27       47.53    
        47.80       48.06       48.32       48.57       48.80       49.02       49.23       49.44       49.63       49.82    
        50.01       50.18       50.35       50.52       50.68       50.84    
  22    56.56       56.13       55.69       55.25       54.80       54.33       53.86       53.38       52.88       52.38    
        51.86       51.32       50.77       50.21       49.62       49.02       48.39       47.75       47.09       46.42    
        45.74       45.08       44.47       43.98       43.69       43.66       43.82       44.09       44.43       44.77    
        45.12       45.45       45.76       46.05       46.32       46.58       46.82       47.06       47.30       47.54    
        47.80       48.05       48.30       48.53       48.76       48.98       49.19       49.40       49.59       49.78    
        49.96       50.14       50.31       50.48       50.65       50.81    
  23    56.55       56.12       55.68       55.23       54.78       54.31       53.84       53.35       52.86       52.35    
        51.83       51.30       50.75       50.19       49.61       49.01       48.40       47.78       47.15       46.52    
        45.91       45.33       44.82       44.42       44.16       44.09       44.16       44.34       44.59       44.88    
        45.18       45.48       45.77       46.06       46.32       46.58       46.83       47.07       47.31       47.56    
        47.80       48.04       48.28       48.51       48.73       48.95       49.16       49.36       49.55       49.74    
        49.93       50.10       50.28       50.44       50.61       50.77    
  24    56.54       56.11       55.67       55.22       54.76       54.30       53.83       53.34       52.85       52.34    
        51.82       51.29       50.74       50.18       49.61       49.02       48.43       47.82       47.22       46.62    
        46.04       45.52       45.06       44.70       44.46       44.37       44.40       44.53       44.73       44.97    
[...]
        48.99       48.72       48.46       48.21       47.98       47.78       47.62       47.52       47.47       47.50    
        47.59       47.72       47.90       48.10       48.32       48.55       48.78       49.01       49.23       49.45    
        49.67       49.88       50.08       50.28       50.47       50.65    
  54    58.48       58.15       57.82       57.48       57.15       56.82       56.49       56.16       55.83       55.50    
        55.17       54.85       54.52       54.20       53.88       53.56       53.25       52.93       52.62       52.31    
        52.01       51.70       51.40       51.10       50.80       50.50       50.20       49.90       49.60       49.30    
        49.00       48.70       48.40       48.10       47.83       47.58       47.37       47.23       47.17       47.21    
        47.32       47.49       47.71       47.95       48.21       48.46       48.72       48.96       49.21       49.44    
        49.66       49.88       50.09       50.29       50.49       50.68    
  55    58.58       58.25       57.92       57.59       57.26       56.93       56.61       56.28       55.95       55.63    
        55.30       54.98       54.66       54.34       54.02       53.71       53.39       53.08       52.77       52.46    
        52.15       51.84       51.54       51.23       50.92       50.61       50.30       49.99       49.67       49.34    
        49.01       48.67       48.33       47.99       47.65       47.33       47.06       46.87       46.78       46.83    
        46.99       47.22       47.49       47.79       48.09       48.38       48.66       48.93       49.19       49.44    
        49.67       49.90       50.11       50.32       50.52       50.71    
  56    58.67       58.34       58.02       57.69       57.37       57.04       56.72       56.40       56.07       55.75    
        55.43       55.11       54.79       54.48       54.16       53.85       53.53       53.22       52.91       52.60    
        52.29       51.98       51.67       51.36       51.05       50.73       50.40       50.08       49.74       49.39    
        49.03       48.65       48.26       47.86       47.45       47.04       46.67       46.39       46.26       46.34    
        46.58       46.90       47.26       47.62       47.97       48.30       48.61       48.91       49.18       49.44    
        49.69       49.92       50.14       50.35       50.56       50.75    
  57    58.77       58.44       58.12       57.80       57.48       57.16       56.83       56.51       56.20       55.88    
        55.56       55.24       54.93       54.61       54.30       53.99       53.68       53.37       53.05       52.74    
        52.43       52.12       51.81       51.49       51.17       50.85       50.51       50.17       49.82       49.45    
        49.06       48.65       48.21       47.74       47.24       46.71       46.19       45.75       45.54       45.70    
        46.09       46.55       47.02       47.47       47.87       48.25       48.59       48.90       49.19       49.46    
        49.72       49.96       50.18       50.40       50.60       50.80    
  58    58.86       58.54       58.22       57.90       57.58       57.27       56.95       56.63       56.32       56.00    
        55.69       55.37       55.06       54.75       54.44       54.13       53.82       53.51       53.20       52.89    
        52.58       52.26       51.95       51.63       51.30       50.97       50.63       50.28       49.91       49.53    
        49.12       48.67       48.19       47.66       47.06       46.38       45.64       44.90       44.43       44.83    
        45.51       46.20       46.81       47.34       47.81       48.22       48.59       48.92       49.22       49.50    
        49.76       50.01       50.23       50.45       50.65       50.85    
  59    58.95       58.64       58.32       58.00       57.69       57.38       57.06       56.75       56.44       56.12    
        55.81       55.50       55.19       54.88       54.57       54.27       53.96       53.65       53.34       53.03    
        52.72       52.41       52.09       51.77       51.44       51.11       50.76       50.40       50.03       49.63    
        49.20       48.74       48.22       47.64       46.95       46.12       45.07       43.76       42.46       43.69    
        44.94       45.91       46.68       47.29       47.80       48.24       48.63       48.97       49.28       49.56    
        49.82       50.07       50.30       50.51       50.72       50.91    
  60    59.05       58.73       58.42       58.11       57.80       57.48       57.17       56.86       56.55       56.25    
        55.94       55.63       55.32       55.02       54.71       54.40       54.10       53.79       53.49       53.18    
        52.87       52.56       52.24       51.92       51.59       51.25       50.91       50.54       50.17       49.76    
        49.33       48.86       48.33       47.72       46.99       46.07       44.77       42.62       37.93       42.55    
        44.63       45.85       46.69       47.34       47.87       48.32       48.71       49.05       49.36       49.64    
        49.90       50.15       50.37       50.59       50.79       50.98    
  61    59.14       58.83       58.52       58.21       57.90       57.59       57.29       56.98       56.67       56.37    
        56.06       55.76       55.45       55.15       54.85       54.54       54.24       53.94       53.63       53.33    
        53.02       52.71       52.39       52.07       51.74       51.41       51.06       50.70       50.33       49.93    
        49.50       49.03       48.51       47.92       47.22       46.39       45.34       44.02       42.71       43.94    
        45.18       46.15       46.90       47.51       48.02       48.45       48.83       49.17       49.47       49.75    
        50.00       50.24       50.46       50.67       50.87       51.06    
  62    59.23       58.92       58.62       58.31       58.01       57.70       57.40       57.09       56.79       56.49    
        56.19       55.88       55.58       55.28       54.98       54.68       54.38       54.08       53.78       53.48    
        53.17       52.86       52.55       52.23       51.91       51.58       51.23       50.88       50.51       50.12    
        49.70       49.25       48.76       48.22       47.61       46.92       46.16       45.41       44.93       45.33    
        45.99       46.66       47.26       47.79       48.24       48.64       48.99       49.31       49.60       49.87    
        50.12       50.35       50.57       50.77       50.96       51.15    
  63    59.32       59.02       58.72       58.41       58.11       57.81       57.51       57.21       56.91       56.61    
        56.31       56.01       55.71       55.42       55.12       54.82       54.52       54.23       53.93       53.63    
        53.33       53.02       52.71       52.40       52.08       51.75       51.42       51.07       50.71       50.34    
        49.94       49.52       49.07       48.58       48.06       47.52       46.98       46.53       46.29       46.44    
        46.81       47.25       47.70       48.13       48.52       48.87       49.19       49.49       49.76       50.01    
        50.25       50.47       50.68       50.88       51.07       51.25    
  64    59.41       59.11       58.81       58.51       58.21       57.91       57.62       57.32       57.02       56.73    
        56.43       56.14       55.84       55.55       55.25       54.96       54.67       54.37       54.08       53.78    
        53.48       53.18       52.88       52.57       52.26       51.94       51.61       51.28       50.93       50.57    
        50.20       49.81       49.40       48.98       48.55       48.12       47.73       47.42       47.27       47.33    
        47.54       47.84       48.17       48.50       48.83       49.13       49.42       49.69       49.94       50.18    
        50.40       50.61       50.81       50.99       51.18       51.35    
  65    59.51       59.21       58.91       58.61       58.32       58.02       57.73       57.43       57.14       56.85    
        56.55       56.26       55.97       55.68       55.39       55.10       54.81       54.52       54.23       53.94    
        53.64       53.35       53.05       52.75       52.44       52.13       51.82       51.50       51.17       50.83    
        50.48       50.12       49.76       49.39       49.03       48.68       48.38       48.16       48.04       48.06    
        48.19       48.39       48.63       48.89       49.16       49.42       49.67       49.91       50.13       50.35    
        50.56       50.75       50.94       51.12       51.29       51.46    
  66    59.60       59.30       59.01       58.71       58.42       58.13       57.83       57.54       57.25       56.96    
        56.67       56.39       56.10       55.81       55.53       55.24       54.95       54.67       54.38       54.09    
        53.81       53.52       53.23       52.93       52.63       52.33       52.03       51.72       51.41       51.09    
        50.77       50.44       50.11       49.79       49.48       49.20       48.96       48.79       48.69       48.68    
        48.76       48.89       49.07       49.27       49.49       49.71       49.92       50.13       50.34       50.54    
        50.73       50.91       51.08       51.25       51.42       51.57    
  67    59.69       59.39       59.10       58.81       58.52       58.23       57.94       57.65       57.37       57.08    
        56.80       56.51       56.23       55.94       55.66       55.38       55.10       54.82       54.54       54.25    
        53.97       53.69       53.40       53.12       52.83       52.54       52.25       51.95       51.65       51.36    
        51.06       50.76       50.47       50.18       49.92       49.68       49.48       49.33       49.24       49.22    
        49.27       49.36       49.49       49.65       49.82       50.00       50.18       50.37       50.55       50.73    
        50.90       51.07       51.23       51.39       51.55       51.69    
  68    59.77       59.48       59.20       58.91       58.62       58.33       58.05       57.76       57.48       57.20    
        56.92       56.64       56.36       56.08       55.80       55.52       55.24       54.97       54.69       54.41    
        54.14       53.86       53.58       53.30       53.02       52.74       52.46       52.18       51.90       51.62    
        51.34       51.07       50.81       50.56       50.32       50.12       49.94       49.82       49.73       49.71    
        49.72       49.79       49.88       50.00       50.14       50.29       50.45       50.61       50.77       50.93    
        51.08       51.24       51.39       51.54       51.68       51.82    
  69    59.86       59.57       59.29       59.00       58.72       58.44       58.15       57.87       57.59       57.31    
        57.03       56.76       56.48       56.21       55.93       55.66       55.39       55.11       54.84       54.57    
        54.30       54.03       53.76       53.49       53.22       52.95       52.68       52.41       52.15       51.89    
        51.63       51.38       51.14       50.91       50.70       50.52       50.37       50.25       50.17       50.14    
        50.14       50.18       50.25       50.34       50.45       50.57       50.71       50.84       50.98       51.12    
        51.27       51.41       51.55       51.68       51.82       51.95    
  70    59.95       59.66       59.38       59.10       58.82       58.54       58.26       57.98       57.70       57.43    
        57.15       56.88       56.61       56.34       56.07       55.80       55.53       55.26       55.00       54.73    
        54.47       54.20       53.94       53.68       53.42       53.16       52.90       52.64       52.39       52.15    
        51.91       51.67       51.45       51.25       51.06       50.89       50.75       50.65       50.57       50.53    
        50.52       50.54       50.59       50.66       50.75       50.85       50.96       51.08       51.20       51.32    
        51.45       51.58       51.71       51.83       51.96       52.08    
  71    60.03       59.75       59.47       59.19       58.91       58.64       58.36       58.09       57.81       57.54    
        57.27       57.00       56.73       56.46       56.20       55.93       55.67       55.41       55.15       54.89    
        54.63       54.37       54.12       53.86       53.61       53.36       53.11       52.87       52.63       52.40    
        52.17       51.96       51.75       51.56       51.39       51.24       51.11       51.01       50.93       50.89    
        50.87       50.88       50.91       50.96       51.03       51.11       51.21       51.31       51.41       51.52    
        51.64       51.75       51.87       51.98       52.10       52.21    
  72    60.12       59.84       59.56       59.29       59.01       58.74       58.46       58.19       57.92       57.65    
        57.39       57.12       56.86       56.59       56.33       56.07       55.81       55.55       55.30       55.04    
        54.79       54.54       54.29       54.05       53.80       53.56       53.33       53.09       52.87       52.65    
        52.43       52.23       52.04       51.86       51.70       51.56       51.44       51.34       51.27       51.22    
        51.20       51.19       51.21       51.25       51.30       51.37       51.44       51.53       51.62       51.72    
        51.82       51.92       52.03       52.13       52.24       52.35    
  73    60.20       59.93       59.65       59.38       59.11       58.83       58.57       58.30       58.03       57.76    
        57.50       57.24       56.98       56.72       56.46       56.20       55.95       55.70       55.45       55.20    
        54.95       54.71       54.47       54.23       53.99       53.76       53.53       53.31       53.09       52.88    
        52.68       52.49       52.31       52.15       52.00       51.86       51.75       51.65       51.58       51.53    
        51.50       51.49       51.50       51.52       51.56       51.61       51.67       51.75       51.82       51.91    
        52.00       52.09       52.18       52.28       52.38       52.48    
  74    60.29       60.01       59.74       59.47       59.20       58.93       58.66       58.40       58.14       57.87    
        57.61       57.35       57.10       56.84       56.59       56.34       56.09       55.84       55.59       55.35    
        55.11       54.87       54.64       54.41       54.18       53.95       53.74       53.52       53.31       53.11    
        52.92       52.74       52.57       52.41       52.27       52.14       52.03       51.94       51.87       51.81    
        51.78       51.76       51.76       51.78       51.80       51.85       51.90       51.96       52.02       52.10    
        52.17       52.26       52.34       52.43       52.52       52.61    
  75    60.37       60.10       59.83       59.56       59.29       59.03       58.76       58.50       58.24       57.98    
        57.72       57.47       57.22       56.96       56.71       56.47       56.22       55.98       55.74       55.50    
        55.27       55.03       54.81       54.58       54.36       54.14       53.93       53.73       53.53       53.34    
        53.15       52.98       52.82       52.67       52.53       52.41       52.30       52.21       52.14       52.08    
        52.04       52.02       52.01       52.02       52.04       52.07       52.11       52.16       52.22       52.28    
        52.35       52.42       52.50       52.57       52.66       52.74    
  76    60.45       60.18       59.91       59.65       59.38       59.12       58.86       58.60       58.34       58.09    
        57.83       57.58       57.33       57.09       56.84       56.60       56.35       56.12       55.88       55.65    
        55.42       55.19       54.97       54.75       54.54       54.33       54.12       53.92       53.73       53.55    
        53.37       53.20       53.05       52.91       52.78       52.66       52.55       52.46       52.39       52.33    
        52.29       52.26       52.25       52.25       52.26       52.28       52.31       52.35       52.40       52.46    
        52.51       52.58       52.65       52.72       52.79       52.87    
  77    60.53       60.26       60.00       59.73       59.47       59.21       58.95       58.70       58.44       58.19    
        57.94       57.69       57.45       57.20       56.96       56.72       56.48       56.25       56.02       55.79    
        55.57       55.35       55.13       54.92       54.71       54.50       54.31       54.12       53.93       53.75    
        53.58       53.42       53.27       53.14       53.01       52.90       52.79       52.70       52.62       52.57    
        52.53       52.50       52.48       52.47       52.47       52.48       52.51       52.54       52.58       52.63    
        52.68       52.73       52.79       52.86       52.93       53.00    
1
  VOLUMETRIC BUDGET FOR ENTIRE MODEL AT END OF TIME STEP    1, STRESS PERIOD   1
  ------------------------------------------------------------------------------

     CUMULATIVE VOLUMES      L**3       RATES FOR THIS TIME STEP      L**3/T
     ------------------                 ------------------------

           IN:                                      IN:
           ---                                      ---
             STORAGE =           0.0000               STORAGE =           0.0000
       CONSTANT HEAD =           0.0000         CONSTANT HEAD =           0.0000
       MANAGED WELLS =           0.0000         MANAGED WELLS =           0.0000
     GHOST-NODE HEAD =     2852420.9517       GHOST-NODE HEAD =        2852.4210

            TOTAL IN =     2852420.9517              TOTAL IN =        2852.4210

          OUT:                                     OUT:
          ----                                     ----
             STORAGE =           0.0000               STORAGE =           0.0000
       CONSTANT HEAD =           0.0000         CONSTANT HEAD =           0.0000
       MANAGED WELLS =     2852420.9567         MANAGED WELLS =        2852.4210
     GHOST-NODE HEAD =           0.0000       GHOST-NODE HEAD =           0.0000

           TOTAL OUT =     2852420.9567             TOTAL OUT =        2852.4210

            IN - OUT =      -5.0458E-03              IN - OUT =      -5.0458E-06

 PERCENT DISCREPANCY =           0.00     PERCENT DISCREPANCY =           0.00






         TIME SUMMARY AT END OF TIME STEP    1 IN STRESS PERIOD    1
                    SECONDS     MINUTES      HOURS       DAYS        YEARS
                    -----------------------------------------------------------
   TIME STEP LENGTH 8.64000E+07 1.44000E+06  24000.      1000.0      2.7379    
 STRESS PERIOD TIME 8.64000E+07 1.44000E+06  24000.      1000.0      2.7379    
         TOTAL TIME 8.64000E+07 1.44000E+06  24000.      1000.0      2.7379    
1
1
  FLUX ACROSS PARENT-CHILD INTERFACE AT TIME STEP  1 IN STRESS PERIOD    1
  ------------------------------------------------------------------------
 G-N FLUX        PARENT        CHILD         DIFFERENCE      % DIFFERENCE
  RATE IN:      2.8524E+03    2.8524E+03     5.9886E-07        0.0000
 RATE OUT:      0.0000E+00    0.0000E+00     0.0000E+00        0.0000

 Run end date and time (yyyy/mm/dd hh:mm:ss): 2014/08/12 12:49:31
 Elapsed run time:  3.337 Seconds

