                                  MODFLOW-LGR      
      U.S. GEOLOGICAL SURVEY MODULAR FINITE-DIFFERENCE GROUNDWATER FLOW MODEL
                  VERSION GWM-2005 1.3 012611,FROM MF-LGR V1.2


     FINAL FLOW PROCESS SIMULATION FOR GWM                                                                                                                                                                   


 REWOUND ..\data\DEWATER-LGR\deworg1_par.dis
 FILE TYPE:DIS   UNIT   11

 REWOUND ..\data\DEWATER-LGR\deworg1_par.ba6
 FILE TYPE:BAS6   UNIT   12

 REWOUND ..\data\DEWATER-LGR\deworg1_par.bc6
 FILE TYPE:BCF6   UNIT   13

 REWOUND ..\data\DEWATER-LGR\deworg1.pcg
 FILE TYPE:PCG   UNIT   14

 REWOUND ..\data\DEWATER-LGR\deworg1_par.gwm
 FILE TYPE:GWM   UNIT   15

 BAS -- BASIC PACKAGE, VERSION 7, 5/2/2005 INPUT READ FROM UNIT   12

 DISCRETIZATION INPUT DATA READ FROM UNIT   11
 #DEWATER-LGR Sample Problem, parent DIS file
 #December, 2007
    1 LAYERS        20 ROWS        30 COLUMNS
    1 STRESS PERIOD(S) IN SIMULATION
 MODEL TIME UNIT IS DAYS
 MODEL LENGTH UNIT IS UNDEFINED
  Confining bed flag for each layer:
   0

                     DELR =   100.000    

                     DELC =   100.000    

 TOP ELEVATION OF LAYER 1 =   100.000    

   MODEL LAYER BOTTOM EL. =   100.000     FOR LAYER   1


 STRESS PERIOD     LENGTH       TIME STEPS     MULTIPLIER FOR DELT    SS FLAG
 ----------------------------------------------------------------------------
        1         1000.000          1                    1.000         SS

 STEADY-STATE SIMULATION



 
 #DEWATER-LGR Sample Problem, parent BAS6 file                                   
 #December, 2007                                                                 
 THE FREE FORMAT OPTION HAS BEEN SELECTED



                     BOUNDARY ARRAY FOR LAYER   1
 READING ON UNIT   12 WITH FORMAT: (20I4)              

                1           2           3           4           5           6           7           8           9          10
               11          12          13          14          15          16          17          18          19          20
               21          22          23          24          25          26          27          28          29          30
 ............................................................................................................................
   1           -1           1           1           1           1           1           1           1           1           1
                1           1           1           1           1           1           1           1           1           1
                1           1           1           1           1           1           1           1           1          -1
   2           -1           1           1           1           1           1           1           1           1           1
                1           1           1           1           1           1           1           1           1           1
                1           1           1           1           1           1           1           1           1          -1
   3           -1           1           1           1           1           1           1           1           1           1
                1           1           1           1           1           1           1           1           1           1
                1           1           1           1           1           1           1           1           1          -1
   4           -1           1           1           1           1           1           1           1           1           1
                1           1           1           1           1           1           1           1           1           1
                1           1           1           1           1           1           1           1           1          -1
   5           -1           1           1           1           1           1           1           1           1           1
                1           1           1           1           1           1           1           1           1           1
                1           1           1           1           1           1           1           1           1          -1
   6           -1           1           1           1           1           1           1           1           1           1
                1           1           1           1           1           1           1           1           1           1
                1           1           1           1           1           1           1           1           1          -1
   7           -1           1           1           1           1           1           1           1           1           1
                1           1           1           1           1           1           1           1           1           1
                1           1           1           1           1           1           1           1           1          -1
   8           -1           1           1           1           1           1           1           1           1           1
                1           1           1           1           1           1           1           1           1           1
                1           1           1           1           1           1           1           1           1          -1
   9           -1           1           1           1           1           1           1           1           1           1
                1           1           1           1           1           1           1           1           1           1
                1           1           1           1           1           1           1           1           1          -1
  10           -1           1           1           1           1           1           1           1           1           1
                1           1           1           1           1           1           1           1           1           1
                1           1           1           1           1           1           1           1           1          -1
  11           -1           1           1           1           1           1           1           1           1           1
                1           1           1           1           1           1           1           1           1           1
                1           1           1           1           1           1           1           1           1          -1
  12           -1           1           1           1           1           1           1           1           1           1
                1           1           1           1           1           1           1           1           1           1
                1           1           1           1           1           1           1           1           1          -1
  13           -1           1           1           1           1           1           1           1           1           1
                1           1           1           1           1           1           1           1           1           1
                1           1           1           1           1           1           1           1           1          -1
  14           -1           1           1           1           1           1           1           1           1           1
                1           1           1           1           1           1           1           1           1           1
                1           1           1           1           1           1           1           1           1          -1
  15           -1           1           1           1           1           1           1           1           1           1
                1           1           1           1           1           1           1           1           1           1
                1           1           1           1           1           1           1           1           1          -1
  16           -1           1           1           1           1           1           1           1           1           1
                1           1           1           1           1           1           1           1           1           1
                1           1           1           1           1           1           1           1           1          -1
  17           -1           1           1           1           1           1           1           1           1           1
                1           1           1           1           1           1           1           1           1           1
                1           1           1           1           1           1           1           1           1          -1
  18           -1           1           1           1           1           1           1           1           1           1
                1           1           1           1           1           1           1           1           1           1
                1           1           1           1           1           1           1           1           1          -1
  19           -1           1           1           1           1           1           1           1           1           1
                1           1           1           1           1           1           1           1           1           1
                1           1           1           1           1           1           1           1           1          -1
  20           -1           1           1           1           1           1           1           1           1           1
                1           1           1           1           1           1           1           1           1           1
                1           1           1           1           1           1           1           1           1          -1

 AQUIFER HEAD WILL BE SET TO  0.0000     AT ALL NO-FLOW NODES (IBOUND=0).



                       INITIAL HEAD FOR LAYER   1
 READING ON UNIT   12 WITH FORMAT: (10F13.0)           

            1           2           3           4           5           6           7           8           9          10
           11          12          13          14          15          16          17          18          19          20
           21          22          23          24          25          26          27          28          29          30
 ........................................................................................................................
   1    80.00       70.00       70.00       70.00       70.00       70.00       70.00       70.00       70.00       70.00    
        70.00       70.00       70.00       70.00       70.00       70.00       70.00       70.00       70.00       70.00    
        70.00       70.00       70.00       70.00       70.00       70.00       70.00       70.00       70.00       60.00    
   2    80.00       70.00       70.00       70.00       70.00       70.00       70.00       70.00       70.00       70.00    
        70.00       70.00       70.00       70.00       70.00       70.00       70.00       70.00       70.00       70.00    
        70.00       70.00       70.00       70.00       70.00       70.00       70.00       70.00       70.00       60.00    
   3    80.00       70.00       70.00       70.00       70.00       70.00       70.00       70.00       70.00       70.00    
        70.00       70.00       70.00       70.00       70.00       70.00       70.00       70.00       70.00       70.00    
        70.00       70.00       70.00       70.00       70.00       70.00       70.00       70.00       70.00       60.00    
   4    80.00       70.00       70.00       70.00       70.00       70.00       70.00       70.00       70.00       70.00    
        70.00       70.00       70.00       70.00       70.00       70.00       70.00       70.00       70.00       70.00    
        70.00       70.00       70.00       70.00       70.00       70.00       70.00       70.00       70.00       60.00    
   5    80.00       70.00       70.00       70.00       70.00       70.00       70.00       70.00       70.00       70.00    
        70.00       70.00       70.00       70.00       70.00       70.00       70.00       70.00       70.00       70.00    
        70.00       70.00       70.00       70.00       70.00       70.00       70.00       70.00       70.00       60.00    
   6    80.00       70.00       70.00       70.00       70.00       70.00       70.00       70.00       70.00       70.00    
        70.00       70.00       70.00       70.00       70.00       70.00       70.00       70.00       70.00       70.00    
        70.00       70.00       70.00       70.00       70.00       70.00       70.00       70.00       70.00       60.00    
   7    80.00       70.00       70.00       70.00       70.00       70.00       70.00       70.00       70.00       70.00    
        70.00       70.00       70.00       70.00       70.00       70.00       70.00       70.00       70.00       70.00    
        70.00       70.00       70.00       70.00       70.00       70.00       70.00       70.00       70.00       60.00    
   8    80.00       70.00       70.00       70.00       70.00       70.00       70.00       70.00       70.00       70.00    
        70.00       70.00       70.00       70.00       70.00       70.00       70.00       70.00       70.00       70.00    
        70.00       70.00       70.00       70.00       70.00       70.00       70.00       70.00       70.00       60.00    
   9    80.00       70.00       70.00       70.00       70.00       70.00       70.00       70.00       70.00       70.00    
        70.00       70.00       70.00       70.00       70.00       70.00       70.00       70.00       70.00       70.00    
        70.00       70.00       70.00       70.00       70.00       70.00       70.00       70.00       70.00       60.00    
  10    80.00       70.00       70.00       70.00       70.00       70.00       70.00       70.00       70.00       70.00    
        70.00       70.00       70.00       70.00       70.00       70.00       70.00       70.00       70.00       70.00    
        70.00       70.00       70.00       70.00       70.00       70.00       70.00       70.00       70.00       60.00    
  11    80.00       70.00       70.00       70.00       70.00       70.00       70.00       70.00       70.00       70.00    
        70.00       70.00       70.00       70.00       70.00       70.00       70.00       70.00       70.00       70.00    
        70.00       70.00       70.00       70.00       70.00       70.00       70.00       70.00       70.00       60.00    
  12    80.00       70.00       70.00       70.00       70.00       70.00       70.00       70.00       70.00       70.00    
        70.00       70.00       70.00       70.00       70.00       70.00       70.00       70.00       70.00       70.00    
        70.00       70.00       70.00       70.00       70.00       70.00       70.00       70.00       70.00       60.00    
  13    80.00       70.00       70.00       70.00       70.00       70.00       70.00       70.00       70.00       70.00    
        70.00       70.00       70.00       70.00       70.00       70.00       70.00       70.00       70.00       70.00    
        70.00       70.00       70.00       70.00       70.00       70.00       70.00       70.00       70.00       60.00    
  14    80.00       70.00       70.00       70.00       70.00       70.00       70.00       70.00       70.00       70.00    
        70.00       70.00       70.00       70.00       70.00       70.00       70.00       70.00       70.00       70.00    
        70.00       70.00       70.00       70.00       70.00       70.00       70.00       70.00       70.00       60.00    
  15    80.00       70.00       70.00       70.00       70.00       70.00       70.00       70.00       70.00       70.00    
        70.00       70.00       70.00       70.00       70.00       70.00       70.00       70.00       70.00       70.00    
        70.00       70.00       70.00       70.00       70.00       70.00       70.00       70.00       70.00       60.00    
  16    80.00       70.00       70.00       70.00       70.00       70.00       70.00       70.00       70.00       70.00    
        70.00       70.00       70.00       70.00       70.00       70.00       70.00       70.00       70.00       70.00    
        70.00       70.00       70.00       70.00       70.00       70.00       70.00       70.00       70.00       60.00    
  17    80.00       70.00       70.00       70.00       70.00       70.00       70.00       70.00       70.00       70.00    
        70.00       70.00       70.00       70.00       70.00       70.00       70.00       70.00       70.00       70.00    
        70.00       70.00       70.00       70.00       70.00       70.00       70.00       70.00       70.00       60.00    
  18    80.00       70.00       70.00       70.00       70.00       70.00       70.00       70.00       70.00       70.00    
        70.00       70.00       70.00       70.00       70.00       70.00       70.00       70.00       70.00       70.00    
        70.00       70.00       70.00       70.00       70.00       70.00       70.00       70.00       70.00       60.00    
  19    80.00       70.00       70.00       70.00       70.00       70.00       70.00       70.00       70.00       70.00    
        70.00       70.00       70.00       70.00       70.00       70.00       70.00       70.00       70.00       70.00    
        70.00       70.00       70.00       70.00       70.00       70.00       70.00       70.00       70.00       60.00    
  20    80.00       70.00       70.00       70.00       70.00       70.00       70.00       70.00       70.00       70.00    
        70.00       70.00       70.00       70.00       70.00       70.00       70.00       70.00       70.00       70.00    
        70.00       70.00       70.00       70.00       70.00       70.00       70.00       70.00       70.00       60.00    

 DEFAULT OUTPUT CONTROL
 THE FOLLOWING OUTPUT COMES AT THE END OF EACH STRESS PERIOD:
 TOTAL VOLUMETRIC BUDGET
           HEAD

 BCF -- BLOCK-CENTERED FLOW PACKAGE, VERSION 7, 5/2/2005
         INPUT READ FROM UNIT 13
 STEADY-STATE SIMULATION
 HEAD AT CELLS THAT CONVERT TO DRY=   0.0000    
 WETTING CAPABILITY IS ACTIVE
 WETTING FACTOR=   1.00000     WETTING ITERATION INTERVAL=   1
 FLAG THAT SPECIFIES THE EQUATION TO USE FOR HEAD AT WETTED CELLS=   0
      LAYER  LAYER-TYPE CODE     INTERBLOCK T
      --------------------------------------------
         1            0          0 -- HARMONIC    

 COLUMN TO ROW ANISOTROPY =   1.00000    

     TRANSMIS. ALONG ROWS =   50.0000     FOR LAYER   1
1
                            STRESS PERIOD NO.    1, LENGTH =   1000.000    
                            -----------------------------------------------

                              NUMBER OF TIME STEPS =     1

                               MULTIPLIER FOR DELT =     1.000

                            INITIAL TIME STEP SIZE =   1000.000    
 
 SOLVING FOR HEAD 


     9 CALLS TO PCG ROUTINE FOR TIME STEP   1 IN STRESS PERIOD    1
    41 TOTAL ITERATIONS


    11 CALLS TO PCG ROUTINE FOR TIME STEP   1 IN STRESS PERIOD    1
    49 TOTAL ITERATIONS


     9 CALLS TO PCG ROUTINE FOR TIME STEP   1 IN STRESS PERIOD    1
    39 TOTAL ITERATIONS


     9 CALLS TO PCG ROUTINE FOR TIME STEP   1 IN STRESS PERIOD    1
    39 TOTAL ITERATIONS


     9 CALLS TO PCG ROUTINE FOR TIME STEP   1 IN STRESS PERIOD    1
    38 TOTAL ITERATIONS


     9 CALLS TO PCG ROUTINE FOR TIME STEP   1 IN STRESS PERIOD    1
    39 TOTAL ITERATIONS


     8 CALLS TO PCG ROUTINE FOR TIME STEP   1 IN STRESS PERIOD    1
    35 TOTAL ITERATIONS


     8 CALLS TO PCG ROUTINE FOR TIME STEP   1 IN STRESS PERIOD    1
    35 TOTAL ITERATIONS


     8 CALLS TO PCG ROUTINE FOR TIME STEP   1 IN STRESS PERIOD    1
    34 TOTAL ITERATIONS


     8 CALLS TO PCG ROUTINE FOR TIME STEP   1 IN STRESS PERIOD    1
    34 TOTAL ITERATIONS


     7 CALLS TO PCG ROUTINE FOR TIME STEP   1 IN STRESS PERIOD    1
    30 TOTAL ITERATIONS


     7 CALLS TO PCG ROUTINE FOR TIME STEP   1 IN STRESS PERIOD    1
    30 TOTAL ITERATIONS


     7 CALLS TO PCG ROUTINE FOR TIME STEP   1 IN STRESS PERIOD    1
    29 TOTAL ITERATIONS


     7 CALLS TO PCG ROUTINE FOR TIME STEP   1 IN STRESS PERIOD    1
    29 TOTAL ITERATIONS


     6 CALLS TO PCG ROUTINE FOR TIME STEP   1 IN STRESS PERIOD    1
    26 TOTAL ITERATIONS


     6 CALLS TO PCG ROUTINE FOR TIME STEP   1 IN STRESS PERIOD    1
    26 TOTAL ITERATIONS


     6 CALLS TO PCG ROUTINE FOR TIME STEP   1 IN STRESS PERIOD    1
    25 TOTAL ITERATIONS


     6 CALLS TO PCG ROUTINE FOR TIME STEP   1 IN STRESS PERIOD    1
    25 TOTAL ITERATIONS


     6 CALLS TO PCG ROUTINE FOR TIME STEP   1 IN STRESS PERIOD    1
    23 TOTAL ITERATIONS


     5 CALLS TO PCG ROUTINE FOR TIME STEP   1 IN STRESS PERIOD    1
    21 TOTAL ITERATIONS


     5 CALLS TO PCG ROUTINE FOR TIME STEP   1 IN STRESS PERIOD    1
    19 TOTAL ITERATIONS


     5 CALLS TO PCG ROUTINE FOR TIME STEP   1 IN STRESS PERIOD    1
    20 TOTAL ITERATIONS


     5 CALLS TO PCG ROUTINE FOR TIME STEP   1 IN STRESS PERIOD    1
    18 TOTAL ITERATIONS


     4 CALLS TO PCG ROUTINE FOR TIME STEP   1 IN STRESS PERIOD    1
    16 TOTAL ITERATIONS


     4 CALLS TO PCG ROUTINE FOR TIME STEP   1 IN STRESS PERIOD    1
    16 TOTAL ITERATIONS


     4 CALLS TO PCG ROUTINE FOR TIME STEP   1 IN STRESS PERIOD    1
    15 TOTAL ITERATIONS
1
              HEAD IN LAYER   1 AT END OF TIME STEP   1 IN STRESS PERIOD    1
  ---------------------------------------------------------------------------

            1           2           3           4           5           6           7           8           9          10
           11          12          13          14          15          16          17          18          19          20
           21          22          23          24          25          26          27          28          29          30
 ........................................................................................................................
   1    80.00       77.73       75.46       73.20       70.95       68.72       66.52       64.37       62.29       60.32    
        58.49       56.87       55.50       54.43       53.69       53.26       53.11       53.19       53.43       53.80    
        54.27       54.81       55.39       56.00       56.64       57.30       57.97       58.64       59.32       60.00    
   2    80.00       77.72       75.45       73.18       70.92       68.68       66.47       64.30       62.19       60.17    
        58.29       56.61       55.19       54.10       53.37       52.99       52.89       53.01       53.30       53.71    
        54.20       54.76       55.35       55.98       56.63       57.29       57.96       58.64       59.32       60.00    
   3    80.00       77.72       75.44       73.16       70.89       68.63       66.38       64.16       61.99       59.89    
        57.90       56.09       54.56       53.41       52.72       52.43       52.45       52.68       53.06       53.53    
        54.08       54.67       55.29       55.94       56.60       57.27       57.95       58.63       59.31       60.00    
   4    80.00       77.71       75.42       73.13       70.84       68.55       66.26       63.98       61.72       59.49    
        57.33       55.30       53.54       52.26       51.66       51.56       51.79       52.19       52.71       53.29    
        53.90       54.55       55.21       55.88       56.56       57.24       57.93       58.62       59.31       60.00    
   5    80.00       77.70       75.41       73.10       70.79       68.47       66.14       63.79       61.41       59.02    
        0.000       0.000       0.000       0.000       0.000       0.000       0.000       0.000       52.30       53.00    
        53.70       54.41       55.11       55.81       56.51       57.21       57.91       58.61       59.30       60.00    
   6    80.00       77.70       75.40       73.08       70.76       68.41       66.03       63.61       61.13       58.56    
        0.000       0.000       0.000       0.000       0.000       0.000       0.000       0.000       51.88       52.71    
        53.50       54.27       55.01       55.74       56.47       57.18       57.89       58.60       59.30       60.00    
   7    80.00       77.70       75.39       73.08       70.74       68.37       65.97       63.50       60.93       58.23    
        0.000       0.000       0.000       0.000       0.000       0.000       0.000       0.000       51.52       52.46    
        53.33       54.14       54.93       55.69       56.43       57.16       57.88       58.59       59.29       60.00    
   8    80.00       77.71       75.40       73.09       70.75       68.38       65.97       63.48       60.88       58.13    
        0.000       0.000       0.000       0.000       0.000       0.000       0.000       0.000       51.29       52.29    
        53.20       54.06       54.87       55.65       56.41       57.14       57.87       58.58       59.29       60.00    
   9    80.00       77.72       75.43       73.12       70.80       68.44       66.03       63.56       60.99       58.27    
        0.000       0.000       0.000       0.000       0.000       0.000       0.000       0.000       51.17       52.19    
        53.13       54.01       54.84       55.64       56.40       57.14       57.87       58.58       59.29       60.00    
  10    80.00       77.73       75.46       73.18       70.88       68.55       66.17       63.74       61.24       58.62    
        0.000       0.000       0.000       0.000       0.000       0.000       0.000       0.000       51.14       52.17    
        53.13       54.02       54.86       55.65       56.42       57.16       57.88       58.59       59.30       60.00    
  11    80.00       77.76       75.51       73.26       70.99       68.69       66.37       64.00       61.59       59.11    
        0.000       0.000       0.000       0.000       0.000       0.000       0.000       0.000       51.18       52.23    
        53.19       54.08       54.91       55.70       56.45       57.19       57.90       58.61       59.30       60.00    
  12    80.00       77.79       75.57       73.35       71.12       68.87       66.60       64.32       62.00       59.66    
        0.000       0.000       0.000       0.000       0.000       0.000       0.000       0.000       51.29       52.37    
        53.33       54.20       55.01       55.78       56.52       57.23       57.94       58.63       59.32       60.00    
  13    80.00       77.82       75.63       73.45       71.26       69.06       66.86       64.66       62.44       60.23    
        0.000       0.000       0.000       0.000       0.000       0.000       0.000       0.000       51.58       52.65    
        53.56       54.38       55.15       55.89       56.60       57.29       57.98       58.66       59.33       60.00    
  14    80.00       77.85       75.70       73.55       71.41       69.27       67.13       65.00       62.89       60.79    
        0.000       0.000       0.000       0.000       0.000       0.000       0.000       0.000       52.18       53.07    
        53.87       54.61       55.33       56.02       56.70       57.37       58.03       58.69       59.34       60.00    
  15    80.00       77.88       75.77       73.66       71.55       69.46       67.39       65.33       63.31       61.32    
        0.000       0.000       0.000       0.000       0.000       0.000       0.000       0.000       52.92       53.57    
        54.23       54.88       55.52       56.16       56.80       57.44       58.08       58.72       59.36       60.00    
  16    80.00       77.91       75.83       73.75       71.69       69.64       67.62       65.63       63.69       61.80    
        59.99       58.27       56.68       55.26       54.10       53.34       53.12       53.27       53.62       54.08    
        54.60       55.15       55.72       56.31       56.91       57.52       58.14       58.75       59.38       60.00    
  17    80.00       77.94       75.88       73.83       71.80       69.80       67.82       65.89       64.01       62.21    
        60.49       58.89       57.43       56.16       55.14       54.44       54.10       54.06       54.23       54.53    
        54.93       55.40       55.91       56.45       57.01       57.59       58.18       58.79       59.39       60.00    
  18    80.00       77.96       75.92       73.90       71.89       69.92       67.98       66.09       64.27       62.52    
        60.88       59.36       57.99       56.81       55.87       55.19       54.79       54.64       54.69       54.89    
        55.21       55.60       56.06       56.56       57.09       57.65       58.23       58.81       59.40       60.00    
  19    80.00       77.97       75.95       73.94       71.96       70.00       68.09       66.23       64.44       62.74    
        61.14       59.67       58.36       57.24       56.33       55.66       55.22       55.02       55.00       55.14    
        55.40       55.75       56.17       56.64       57.15       57.69       58.25       58.83       59.41       60.00    
  20    80.00       77.98       75.97       73.97       71.99       70.05       68.15       66.30       64.53       62.85    
        61.27       59.83       58.54       57.44       56.55       55.88       55.44       55.20       55.15       55.26    
        55.49       55.82       56.22       56.68       57.18       57.72       58.27       58.84       59.42       60.00    
1
  VOLUMETRIC BUDGET FOR ENTIRE MODEL AT END OF TIME STEP  1 IN STRESS PERIOD   1
  ------------------------------------------------------------------------------

     CUMULATIVE VOLUMES      L**3       RATES FOR THIS TIME STEP      L**3/T
     ------------------                 ------------------------

           IN:                                      IN:
           ---                                      ---
             STORAGE =           0.0000               STORAGE =           0.0000
       CONSTANT HEAD =     2865656.7157         CONSTANT HEAD =        2865.6567
        MANAGED FLOW =           0.0000          MANAGED FLOW =           0.0000
    PARENT FLUX B.C. =           0.0000      PARENT FLUX B.C. =           0.0000

            TOTAL IN =     2865656.7157              TOTAL IN =        2865.6567

          OUT:                                     OUT:
          ----                                     ----
             STORAGE =           0.0000               STORAGE =           0.0000
       CONSTANT HEAD =           0.0000         CONSTANT HEAD =           0.0000
        MANAGED FLOW =           0.0000          MANAGED FLOW =           0.0000
    PARENT FLUX B.C. =     2865656.7153      PARENT FLUX B.C. =        2865.6567

           TOTAL OUT =     2865656.7153             TOTAL OUT =        2865.6567

            IN - OUT =       3.7925E-04              IN - OUT =       3.7925E-07

 PERCENT DISCREPANCY =           0.00     PERCENT DISCREPANCY =           0.00






          TIME SUMMARY AT END OF TIME STEP   1 IN STRESS PERIOD    1
                    SECONDS     MINUTES      HOURS       DAYS        YEARS
                    -----------------------------------------------------------
   TIME STEP LENGTH 8.64000E+07 1.44000E+06  24000.      1000.0      2.7379    
 STRESS PERIOD TIME 8.64000E+07 1.44000E+06  24000.      1000.0      2.7379    
         TOTAL TIME 8.64000E+07 1.44000E+06  24000.      1000.0      2.7379    
1
