                                  MODFLOW-LGR      
      U.S. GEOLOGICAL SURVEY MODULAR FINITE-DIFFERENCE GROUNDWATER FLOW MODEL
                 VERSION GWM-2005 1.4.1 062012,FROM MF-LGR V1.2


     FINAL FLOW PROCESS SIMULATION FOR GWM                                                                                                                                                                   


 REWOUND ..\data\SEAWATER-LGR\sealgr_chd.dis
 FILE TYPE:DIS   UNIT   21

 REWOUND ..\data\SEAWATER-LGR\sealgr_chd.ba6
 FILE TYPE:BAS6   UNIT   22

 REWOUND ..\data\SEAWATER-LGR\sealgr.bc6
 FILE TYPE:BCF6   UNIT   23

 REWOUND ..\data\SEAWATER-LGR\sealgr_chd.rch
 FILE TYPE:RCH   UNIT   25

 REWOUND ..\data\SEAWATER-LGR\sealgr.gmg
 FILE TYPE:GMG   UNIT   26

 REWOUND ..\data\SEAWATER-LGR\sealgr_chd.gwm
 FILE TYPE:GWM   UNIT   28

 BAS -- BASIC PACKAGE, VERSION 7, 5/2/2005 INPUT READ FROM UNIT   22

 DISCRETIZATION INPUT DATA READ FROM UNIT   21
 #SEAWATER-LGR Sample Problem, DIS-Package child file
 #December, 2007
    2 LAYERS        25 ROWS        40 COLUMNS
    1 STRESS PERIOD(S) IN SIMULATION
 MODEL TIME UNIT IS DAYS
 MODEL LENGTH UNIT IS UNDEFINED
  Confining bed flag for each layer:
   0   0

                     DELR =   66.6667    

                     DELC =   66.6667    

 TOP ELEVATION OF LAYER 1 =   100.000    

   MODEL LAYER BOTTOM EL. =  -10.0000     FOR LAYER   1

   MODEL LAYER BOTTOM EL. =  -20.0000     FOR LAYER   2


 STRESS PERIOD     LENGTH       TIME STEPS     MULTIPLIER FOR DELT    SS FLAG
 ----------------------------------------------------------------------------
        1         1.000000          1                    1.000         SS

 STEADY-STATE SIMULATION



 
 #SEAWATER-LGR Sample Problem, BAS6 child file                                   
 #December, 2007                                                                 
 THE FREE FORMAT OPTION HAS BEEN SELECTED



                     BOUNDARY ARRAY FOR LAYER   1
 READING ON UNIT   22 WITH FORMAT: (20I4)              



                     BOUNDARY ARRAY FOR LAYER   2
 READING ON UNIT   22 WITH FORMAT: (20I4)              

 AQUIFER HEAD WILL BE SET TO  0.0000     AT ALL NO-FLOW NODES (IBOUND=0).



                       INITIAL HEAD FOR LAYER   1
 READING ON UNIT   22 WITH FORMAT: (10F13.0)           



                       INITIAL HEAD FOR LAYER   2
 READING ON UNIT   22 WITH FORMAT: (10F13.0)           

 DEFAULT OUTPUT CONTROL
 THE FOLLOWING OUTPUT COMES AT THE END OF EACH STRESS PERIOD:
 TOTAL VOLUMETRIC BUDGET
           HEAD

 BCF -- BLOCK-CENTERED FLOW PACKAGE, VERSION 7, 5/2/2005
         INPUT READ FROM UNIT 23
 STEADY-STATE SIMULATION
 HEAD AT CELLS THAT CONVERT TO DRY=  0.10000E+11
 WETTING CAPABILITY IS NOT ACTIVE
      LAYER  LAYER-TYPE CODE     INTERBLOCK T
      --------------------------------------------
         1            1         10 -- ARITHMETIC  
         2            0          0 -- HARMONIC    

 COLUMN TO ROW ANISOTROPY =   1.00000    

    HYD. COND. ALONG ROWS =   5.00000     FOR LAYER   1

 VERT HYD COND /THICKNESS =  5.000000E-02 FOR LAYER   1

     TRANSMIS. ALONG ROWS =   800.000     FOR LAYER   2

 RCH -- RECHARGE PACKAGE, VERSION 7, 5/2/2005 INPUT READ FROM UNIT   25
 #SEAWATER-LGR Sample Problem, RECH Child file
 #December, 2007
     1 Named Parameters     
 OPTION 1 -- RECHARGE TO TOP LAYER


     1 Recharge parameters

 PARAMETER NAME:REC-SP2      TYPE:RCH    CLUSTERS:   1
 Parameter value from package file is:   2.00000E-03
                MULTIPLIER ARRAY: NONE    ZONE ARRAY: ALL
1
                            STRESS PERIOD NO.    1, LENGTH =   1.000000    
                            -----------------------------------------------

                              NUMBER OF TIME STEPS =     1

                               MULTIPLIER FOR DELT =     1.000

                            INITIAL TIME STEP SIZE =   1.000000    



 RECH array defined by the following parameters:
 Parameter:  REC-SP2

                 RECHARGE =  2.000000E-03
 
 SOLVING FOR HEAD 
1
              HEAD IN LAYER   1 AT END OF TIME STEP   1 IN STRESS PERIOD    1
  ---------------------------------------------------------------------------

            1           2           3           4           5           6           7           8           9          10
           11          12          13          14          15          16          17          18          19          20
           21          22          23          24          25          26          27          28          29          30
           31          32          33          34          35          36          37          38          39          40
 ........................................................................................................................
   1    17.75       17.35       16.90       16.40       15.99       15.53       15.02       14.63       14.19       13.69    
        13.36       12.97       12.53       12.23       11.89       11.49       11.22       10.89       10.51       10.23    
        9.901       9.512       9.214       8.859       8.447       8.120       7.737       7.295       6.938       6.523    
        6.047       5.658       5.210       4.698       4.278       3.795       3.247       2.792       2.274       1.694    
   2    17.81       17.36       16.91       16.45       16.00       15.54       15.08       14.63       14.19       13.74    
        13.34       12.94       12.54       12.19       11.84       11.50       11.18       10.85       10.52       10.20    
        9.871       9.526       9.189       8.835       8.465       8.099       7.716       7.316       6.918       6.503    
        6.069       5.639       5.190       4.722       4.257       3.774       3.272       2.773       2.259       1.748    
   3    17.83       17.38       16.93       16.48       16.02       15.56       15.09       14.63       14.18       13.73    
        13.30       12.89       12.50       12.14       11.79       11.46       11.14       10.82       10.50       10.18    
        9.852       9.518       9.177       8.826       8.463       8.093       7.711       7.317       6.914       6.499    
        6.072       5.636       5.187       4.725       4.255       3.771       3.275       2.770       2.256       1.747    
   4    17.81       17.39       16.95       16.49       16.03       15.56       15.09       14.62       14.15       13.69    
        13.25       12.82       12.43       12.06       11.72       11.39       11.08       10.77       10.47       10.15    
        9.833       9.504       9.166       8.818       8.459       8.089       7.708       7.316       6.913       6.499    
        6.073       5.635       5.187       4.726       4.255       3.772       3.276       2.769       2.247       1.685    
   5    17.87       17.42       16.96       16.50       16.04       15.56       15.08       14.59       14.11       13.63    
        13.16       12.71       12.31       11.94       11.61       11.31       11.01       10.72       10.43       10.12    
        9.812       9.489       9.155       8.810       8.454       8.086       7.706       7.315       6.913       6.499    
        6.073       5.636       5.187       4.727       4.256       3.772       3.277       2.771       2.256       1.747    
   6    17.89       17.43       16.98       16.51       16.04       15.55       15.06       14.56       14.05       13.54    
        13.03       12.56       12.13       11.78       11.48       11.20       10.93       10.66       10.39       10.09    
        9.791       9.475       9.146       8.804       8.450       8.083       7.705       7.315       6.913       6.499    
        6.074       5.637       5.188       4.728       4.256       3.773       3.278       2.772       2.256       1.747    
   7    17.86       17.44       16.99       16.52       16.04       15.55       15.04       14.52       13.98       13.42    
        12.87       12.33       11.86       11.54       11.30       11.08       10.85       10.60       10.34       10.07    
        9.773       9.463       9.138       8.799       8.447       8.082       7.705       7.315       6.914       6.500    
        6.075       5.638       5.190       4.729       4.258       3.774       3.279       2.771       2.248       1.686    
   8    17.93       17.46       17.00       16.53       16.05       15.54       15.02       14.48       13.91       13.30    
        12.66       11.98       11.38       11.19       11.08       10.94       10.76       10.55       10.31       10.05    
        9.760       9.455       9.134       8.797       8.447       8.083       7.706       7.317       6.915       6.502    
        6.077       5.640       5.191       4.731       4.259       3.775       3.280       2.773       2.257       1.748    
   9    17.94       17.48       17.02       16.55       16.06       15.55       15.02       14.46       13.85       13.19    
        12.41       11.43       10.15       10.62       10.82       10.82       10.70       10.52       10.29       10.04    
        9.755       9.454       9.134       8.799       8.449       8.085       7.709       7.319       6.918       6.504    
        6.079       5.642       5.193       4.733       4.260       3.777       3.281       2.774       2.258       1.749    
  10    17.92       17.49       17.04       16.57       16.08       15.57       15.03       14.46       13.85       13.14    
        12.23       10.59       4.813       9.765       10.63       10.76       10.68       10.51       10.29       10.04    
        9.761       9.460       9.140       8.805       8.455       8.090       7.713       7.324       6.922       6.508    
        6.082       5.644       5.195       4.735       4.262       3.778       3.282       2.774       2.250       1.688    
  11    17.98       17.52       17.06       16.59       16.10       15.60       15.07       14.51       13.90       13.24    
        12.46       11.47       10.20       10.66       10.86       10.85       10.73       10.55       10.32       10.06    
        9.777       9.473       9.152       8.815       8.463       8.098       7.720       7.329       6.926       6.512    
        6.085       5.647       5.198       4.737       4.264       3.780       3.283       2.776       2.259       1.750    
  12    18.01       17.55       17.09       16.62       16.14       15.64       15.12       14.58       14.00       13.40    
        12.75       12.07       11.47       11.27       11.15       11.01       10.83       10.61       10.37       10.09    
        9.804       9.494       9.169       8.829       8.474       8.107       7.728       7.336       6.932       6.516    
        6.089       5.651       5.201       4.739       4.266       3.781       3.285       2.777       2.260       1.751    
  13    17.98       17.57       17.12       16.66       16.18       15.69       15.19       14.66       14.12       13.57    
        13.01       12.46       11.99       11.67       11.41       11.18       10.94       10.69       10.43       10.14    
        9.838       9.521       9.190       8.846       8.488       8.118       7.737       7.343       6.938       6.522    
        6.094       5.655       5.204       4.742       4.268       3.783       3.286       2.777       2.253       1.690    
  14    18.05       17.60       17.15       16.70       16.23       15.75       15.26       14.75       14.24       13.73    
        13.22       12.74       12.30       11.94       11.63       11.34       11.06       10.78       10.49       10.19    
        9.877       9.552       9.214       8.865       8.504       8.131       7.747       7.352       6.945       6.527    
        6.098       5.658       5.207       4.744       4.270       3.785       3.288       2.779       2.262       1.752    
  15    18.08       17.63       17.19       16.74       16.27       15.81       15.33       14.84       14.36       13.87    
        13.40       12.94       12.53       12.15       11.80       11.48       11.18       10.87       10.56       10.24    
        9.918       9.584       9.240       8.885       8.520       8.144       7.757       7.360       6.952       6.533    
        6.103       5.662       5.210       4.747       4.272       3.786       3.289       2.781       2.263       1.752    
  16    18.05       17.65       17.22       16.77       16.32       15.86       15.40       14.93       14.46       13.99    
        13.54       13.10       12.69       12.31       11.95       11.61       11.27       10.95       10.62       10.29    
        9.958       9.616       9.265       8.905       8.536       8.157       7.768       7.369       6.959       6.539    
        6.108       5.666       5.213       4.749       4.274       3.788       3.290       2.780       2.255       1.692    
  17    18.12       17.68       17.25       16.81       16.36       15.91       15.45       15.00       14.54       14.09    
        13.65       13.23       12.82       12.43       12.06       11.70       11.36       11.02       10.68       10.34    
        9.995       9.645       9.288       8.924       8.551       8.169       7.778       7.376       6.965       6.544    
        6.112       5.669       5.216       4.752       4.276       3.790       3.292       2.782       2.264       1.753    
  18    18.14       17.70       17.27       16.84       16.40       15.95       15.51       15.06       14.61       14.17    
        13.74       13.32       12.91       12.52       12.15       11.78       11.43       11.08       10.73       10.38    
        10.03       9.671       9.309       8.941       8.564       8.180       7.786       7.383       6.971       6.548    
        6.116       5.672       5.219       4.754       4.278       3.791       3.293       2.783       2.265       1.754    
  19    18.11       17.71       17.29       16.86       16.43       15.99       15.55       15.10       14.67       14.23    
        13.81       13.39       12.99       12.59       12.21       11.84       11.48       11.12       10.76       10.41    
        10.05       9.692       9.326       8.954       8.575       8.189       7.793       7.389       6.976       6.552    
        6.119       5.675       5.220       4.755       4.279       3.792       3.293       2.783       2.257       1.693    
  20    18.17       17.74       17.31       16.88       16.45       16.01       15.58       15.14       14.70       14.27    
        13.85       13.44       13.03       12.64       12.26       11.88       11.51       11.15       10.79       10.43    
        10.07       9.707       9.338       8.964       8.583       8.195       7.799       7.393       6.979       6.555    
        6.121       5.677       5.222       4.756       4.280       3.793       3.294       2.784       2.266       1.754    
  21    18.18       17.75       17.32       16.89       16.46       16.03       15.59       15.16       14.73       14.30    
        13.88       13.47       13.06       12.67       12.28       11.91       11.54       11.17       10.81       10.44    
        10.08       9.716       9.346       8.970       8.588       8.199       7.802       7.396       6.981       6.556    
        6.122       5.678       5.223       4.757       4.280       3.793       3.294       2.785       2.266       1.755    
  22    18.14       17.75       17.33       16.90       16.47       16.04       15.60       15.17       14.73       14.31    
        13.89       13.47       13.07       12.67       12.29       11.91       11.54       11.17       10.81       10.45    
        10.09       9.718       9.348       8.972       8.590       8.200       7.803       7.396       6.982       6.557    
        6.122       5.678       5.223       4.757       4.280       3.793       3.294       2.783       2.258       1.693    
  23    18.19       17.76       17.33       16.90       16.47       16.03       15.60       15.16       14.73       14.30    
        13.88       13.46       13.05       12.66       12.28       11.90       11.53       11.17       10.80       10.44    
        10.08       9.714       9.345       8.970       8.587       8.199       7.802       7.395       6.981       6.557    
        6.121       5.678       5.223       4.756       4.280       3.793       3.293       2.785       2.267       1.755    
  24    18.19       17.76       17.33       16.89       16.46       16.03       15.58       15.15       14.71       14.27    
        13.85       13.43       13.01       12.63       12.25       11.87       11.51       11.15       10.78       10.43    
        10.07       9.700       9.340       8.966       8.578       8.197       7.801       7.389       6.982       6.558    
        6.116       5.679       5.225       4.752       4.283       3.795       3.289       2.787       2.270       1.756    
  25    18.14       17.76       17.33       16.86       16.46       16.02       15.53       15.13       14.69       14.19    
        13.82       13.40       12.92       12.60       12.22       11.79       11.49       11.14       10.73       10.43    
        10.07       9.660       9.345       8.974       8.546       8.209       7.814       7.361       6.997       6.574    
        6.090       5.697       5.243       4.727       4.302       3.816       3.264       2.806       2.285       1.702    
1
              HEAD IN LAYER   2 AT END OF TIME STEP   1 IN STRESS PERIOD    1
  ---------------------------------------------------------------------------

            1           2           3           4           5           6           7           8           9          10
           11          12          13          14          15          16          17          18          19          20
           21          22          23          24          25          26          27          28          29          30
           31          32          33          34          35          36          37          38          39          40
 ........................................................................................................................
   1    17.72       17.29       16.84       16.38       15.94       15.48       15.00       14.58       14.13       13.68    
        13.30       12.91       12.51       12.18       11.83       11.47       11.16       10.84       10.49       10.18    
        9.844       9.494       9.155       8.800       8.428       8.061       7.677       7.276       6.877       6.461    
        6.028       5.596       5.146       4.679       4.213       3.729       3.227       2.725       2.205       1.665    
   2    17.76       17.32       16.87       16.41       15.96       15.50       15.04       14.59       14.15       13.70    
        13.29       12.90       12.51       12.15       11.80       11.46       11.14       10.81       10.48       10.16    
        9.830       9.490       9.147       8.794       8.429       8.057       7.674       7.278       6.875       6.460    
        6.031       5.595       5.145       4.683       4.212       3.729       3.232       2.726       2.209       1.683    
   3    17.78       17.34       16.89       16.44       15.98       15.52       15.05       14.59       14.14       13.69    
        13.27       12.86       12.46       12.10       11.75       11.42       11.10       10.78       10.46       10.14    
        9.814       9.480       9.138       8.787       8.425       8.054       7.671       7.278       6.874       6.459    
        6.032       5.595       5.145       4.684       4.213       3.729       3.233       2.727       2.209       1.683    
   4    17.79       17.36       16.91       16.45       15.99       15.52       15.05       14.58       14.11       13.65    
        13.21       12.78       12.39       12.02       11.68       11.36       11.04       10.74       10.43       10.12    
        9.795       9.466       9.128       8.779       8.420       8.050       7.669       7.277       6.873       6.459    
        6.032       5.595       5.146       4.685       4.213       3.730       3.234       2.727       2.206       1.665    
   5    17.82       17.38       16.93       16.47       16.00       15.52       15.04       14.55       14.07       13.59    
        13.12       12.68       12.27       11.91       11.58       11.27       10.98       10.69       10.39       10.09    
        9.774       9.451       9.117       8.772       8.415       8.047       7.667       7.276       6.873       6.459    
        6.033       5.595       5.147       4.686       4.214       3.730       3.235       2.728       2.210       1.683    
   6    17.84       17.39       16.94       16.47       16.00       15.52       15.02       14.52       14.01       13.50    
        12.99       12.52       12.10       11.74       11.44       11.17       10.90       10.63       10.35       10.06    
        9.754       9.437       9.108       8.766       8.411       8.045       7.666       7.275       6.873       6.459    
        6.034       5.596       5.148       4.687       4.215       3.731       3.236       2.729       2.211       1.684    
   7    17.84       17.40       16.95       16.48       16.00       15.51       15.00       14.48       13.94       13.38    
        12.83       12.30       11.85       11.52       11.27       11.04       10.81       10.57       10.31       10.03    
        9.735       9.425       9.100       8.761       8.409       8.044       7.666       7.276       6.874       6.460    
        6.035       5.598       5.149       4.688       4.216       3.732       3.236       2.729       2.207       1.666    
   8    17.87       17.42       16.97       16.49       16.01       15.50       14.98       14.44       13.87       13.26    
        12.63       12.00       11.47       11.22       11.06       10.91       10.73       10.52       10.27       10.01    
        9.723       9.418       9.096       8.759       8.408       8.044       7.667       7.277       6.876       6.462    
        6.037       5.599       5.150       4.690       4.217       3.733       3.238       2.730       2.212       1.684    
   9    17.89       17.44       16.98       16.51       16.02       15.51       14.98       14.42       13.82       13.16    
        12.43       11.62       10.83       10.83       10.85       10.80       10.67       10.48       10.26       9.999    
        9.718       9.416       9.097       8.761       8.411       8.047       7.670       7.280       6.878       6.465    
        6.039       5.601       5.152       4.691       4.219       3.735       3.239       2.731       2.212       1.685    
  10    17.90       17.46       17.00       16.53       16.04       15.53       14.99       14.42       13.81       13.12    
        12.32       11.25       9.599       10.46       10.73       10.75       10.65       10.48       10.26       10.00    
        9.723       9.422       9.102       8.767       8.416       8.052       7.674       7.284       6.882       6.468    
        6.042       5.604       5.155       4.693       4.221       3.736       3.240       2.731       2.209       1.668    
  11    17.93       17.48       17.03       16.55       16.06       15.56       15.03       14.46       13.86       13.21    
        12.48       11.66       10.87       10.87       10.89       10.83       10.70       10.51       10.28       10.02    
        9.740       9.436       9.114       8.777       8.425       8.059       7.681       7.290       6.887       6.472    
        6.045       5.607       5.157       4.696       4.222       3.738       3.241       2.733       2.214       1.686    
  12    17.96       17.51       17.05       16.58       16.10       15.60       15.08       14.54       13.96       13.36    
        12.73       12.09       11.55       11.30       11.14       10.98       10.79       10.57       10.33       10.06    
        9.766       9.457       9.131       8.790       8.436       8.068       7.688       7.296       6.892       6.477    
        6.049       5.610       5.160       4.698       4.225       3.739       3.243       2.734       2.215       1.687    
  13    17.96       17.53       17.08       16.62       16.14       15.65       15.15       14.62       14.08       13.53    
        12.97       12.44       11.98       11.64       11.38       11.15       10.91       10.66       10.39       10.10    
        9.801       9.483       9.152       8.807       8.450       8.080       7.698       7.304       6.899       6.482    
        6.054       5.614       5.163       4.701       4.227       3.741       3.244       2.735       2.212       1.670    
  14    18.00       17.56       17.12       16.66       16.19       15.71       15.22       14.71       14.20       13.69    
        13.18       12.70       12.27       11.91       11.59       11.31       11.03       10.75       10.45       10.15    
        9.840       9.514       9.176       8.826       8.465       8.092       7.708       7.312       6.905       6.487    
        6.058       5.618       5.166       4.703       4.229       3.743       3.245       2.737       2.217       1.688    
  15    18.03       17.59       17.15       16.70       16.24       15.77       15.29       14.81       14.32       13.83    
        13.36       12.91       12.49       12.11       11.77       11.45       11.14       10.83       10.52       10.21    
        9.880       9.546       9.201       8.847       8.481       8.105       7.718       7.321       6.912       6.493    
        6.063       5.622       5.169       4.706       4.231       3.745       3.247       2.738       2.217       1.689    
  16    18.04       17.61       17.18       16.73       16.28       15.82       15.36       14.89       14.42       13.95    
        13.50       13.06       12.65       12.27       11.91       11.57       11.24       10.91       10.59       10.26    
        9.920       9.578       9.227       8.867       8.497       8.118       7.729       7.329       6.919       6.499    
        6.068       5.625       5.172       4.708       4.233       3.746       3.248       2.738       2.214       1.671    
  17    18.07       17.64       17.21       16.77       16.32       15.87       15.42       14.96       14.50       14.05    
        13.61       13.19       12.78       12.39       12.02       11.67       11.32       10.98       10.64       10.30    
        9.957       9.607       9.250       8.885       8.512       8.130       7.738       7.337       6.926       6.504    
        6.072       5.629       5.175       4.711       4.235       3.748       3.249       2.740       2.219       1.690    
  18    18.09       17.66       17.23       16.80       16.36       15.91       15.47       15.02       14.57       14.13    
        13.70       13.28       12.88       12.49       12.11       11.74       11.39       11.04       10.69       10.34    
        9.989       9.632       9.271       8.902       8.526       8.141       7.747       7.344       6.931       6.508    
        6.075       5.632       5.178       4.713       4.236       3.749       3.250       2.740       2.219       1.690    
  19    18.09       17.68       17.26       16.82       16.39       15.95       15.51       15.07       14.63       14.19    
        13.77       13.35       12.95       12.56       12.17       11.80       11.44       11.08       10.73       10.37    
        10.01       9.653       9.288       8.916       8.537       8.150       7.754       7.350       6.936       6.512    
        6.078       5.634       5.180       4.714       4.238       3.750       3.251       2.740       2.216       1.673    
  20    18.12       17.70       17.27       16.84       16.41       15.97       15.54       15.10       14.67       14.24    
        13.81       13.40       13.00       12.60       12.22       11.84       11.48       11.11       10.75       10.39    
        10.03       9.668       9.300       8.926       8.545       8.156       7.759       7.354       6.939       6.515    
        6.081       5.636       5.181       4.715       4.238       3.751       3.252       2.741       2.220       1.691    
  21    18.13       17.71       17.28       16.86       16.43       15.99       15.56       15.12       14.69       14.26    
        13.84       13.43       13.02       12.63       12.24       11.87       11.50       11.13       10.77       10.41    
        10.04       9.677       9.307       8.932       8.549       8.160       7.763       7.356       6.941       6.516    
        6.082       5.637       5.182       4.716       4.239       3.751       3.252       2.742       2.220       1.691    
  22    18.12       17.71       17.29       16.86       16.43       16.00       15.56       15.13       14.70       14.27    
        13.85       13.43       13.03       12.64       12.25       11.87       11.50       11.14       10.77       10.41    
        10.05       9.680       9.309       8.933       8.551       8.161       7.763       7.357       6.942       6.517    
        6.082       5.637       5.182       4.716       4.239       3.751       3.252       2.741       2.217       1.673    
  23    18.14       17.72       17.29       16.86       16.43       16.00       15.56       15.12       14.69       14.26    
        13.84       13.42       13.02       12.62       12.24       11.86       11.49       11.13       10.77       10.40    
        10.04       9.676       9.306       8.931       8.548       8.159       7.762       7.355       6.941       6.516    
        6.081       5.637       5.181       4.715       4.238       3.751       3.251       2.741       2.220       1.691    
  24    18.13       17.71       17.29       16.86       16.42       15.98       15.54       15.11       14.67       14.23    
        13.81       13.39       12.98       12.59       12.21       11.83       11.47       11.11       10.75       10.39    
        10.03       9.664       9.298       8.924       8.541       8.155       7.759       7.351       6.938       6.514    
        6.078       5.635       5.180       4.713       4.238       3.750       3.249       2.741       2.220       1.691    
  25    18.12       17.71       17.28       16.84       16.41       15.97       15.51       15.08       14.63       14.17    
        13.77       13.34       12.90       12.54       12.17       11.77       11.43       11.08       10.71       10.37    
        10.01       9.642       9.287       8.915       8.528       8.149       7.754       7.342       6.936       6.512    
        6.071       5.634       5.180       4.707       4.237       3.750       3.244       2.739       2.216       1.673    
1
  VOLUMETRIC BUDGET FOR ENTIRE MODEL AT END OF TIME STEP  1 IN STRESS PERIOD   1
  ------------------------------------------------------------------------------

     CUMULATIVE VOLUMES      L**3       RATES FOR THIS TIME STEP      L**3/T
     ------------------                 ------------------------

           IN:                                      IN:
           ---                                      ---
             STORAGE =           0.0000               STORAGE =           0.0000
       CONSTANT HEAD =        9603.8196         CONSTANT HEAD =        9603.8196
            RECHARGE =        7768.8897              RECHARGE =        7768.8897
        MANAGED FLOW =           0.0000          MANAGED FLOW =           0.0000

            TOTAL IN =       17372.7093              TOTAL IN =       17372.7093

          OUT:                                     OUT:
          ----                                     ----
             STORAGE =           0.0000               STORAGE =           0.0000
       CONSTANT HEAD =       11473.0150         CONSTANT HEAD =       11473.0150
            RECHARGE =           0.0000              RECHARGE =           0.0000
        MANAGED FLOW =        5899.6943          MANAGED FLOW =        5899.6943

           TOTAL OUT =       17372.7093             TOTAL OUT =       17372.7093

            IN - OUT =      -5.0713E-09              IN - OUT =      -5.0713E-09

 PERCENT DISCREPANCY =           0.00     PERCENT DISCREPANCY =           0.00






          TIME SUMMARY AT END OF TIME STEP   1 IN STRESS PERIOD    1
                    SECONDS     MINUTES      HOURS       DAYS        YEARS
                    -----------------------------------------------------------
   TIME STEP LENGTH  86400.      1440.0      24.000      1.0000     2.73785E-03
 STRESS PERIOD TIME  86400.      1440.0      24.000      1.0000     2.73785E-03
         TOTAL TIME  86400.      1440.0      24.000      1.0000     2.73785E-03
1
1
  FLUX ACROSS PARENT-CHILD INTERFACE AT TIME STEP  1 IN STRESS PERIOD    1
  ------------------------------------------------------------------------

     CUMULATIVE VOLUMES      L**3       RATES FOR THIS TIME STEP      L**3/T
     ------------------                 ------------------------

   TOTAL IN TO CHILD =       10121.0483     TOTAL IN TO CHILD =       10121.0483

 TOTAL OUT TO PARENT =       11990.2436   TOTAL OUT TO PARENT =       11990.2436


 Run end date and time (yyyy/mm/dd hh:mm:ss): 2012/06/28 11:36:55
 Elapsed run time: 18.673 Seconds

