                                  MODFLOW-LGR      
      U.S. GEOLOGICAL SURVEY MODULAR FINITE-DIFFERENCE GROUNDWATER FLOW MODEL
                 VERSION GWM-2005 1.4.1 062012,FROM MF-LGR V1.2


     FINAL FLOW PROCESS SIMULATION FOR GWM                                                                                                                                                                   


 REWOUND ..\data\MAXIMIN\maximin.dis
 FILE TYPE:DIS   UNIT   11

 REWOUND ..\data\MAXIMIN\maximin.ba6
 FILE TYPE:BAS6   UNIT   12

 REWOUND ..\data\MAXIMIN\maximin.lpf
 FILE TYPE:LPF   UNIT   13

 REWOUND ..\data\MAXIMIN\maximin.pcg
 FILE TYPE:PCG   UNIT   14

 REWOUND ..\data\MAXIMIN\maximin.gwm
 FILE TYPE:GWM   UNIT   15

 BAS -- BASIC PACKAGE, VERSION 7, 5/2/2005 INPUT READ FROM UNIT   12

 DISCRETIZATION INPUT DATA READ FROM UNIT   11
 #MAXIMIN Sample Problem, DIS file
 #December 2009
    1 LAYERS        20 ROWS        30 COLUMNS
    1 STRESS PERIOD(S) IN SIMULATION
 MODEL TIME UNIT IS DAYS
 MODEL LENGTH UNIT IS UNDEFINED
  Confining bed flag for each layer:
   0

                     DELR =   100.000    

                     DELC =   100.000    

 TOP ELEVATION OF LAYER 1 =   100.000    

   MODEL LAYER BOTTOM EL. =   0.00000     FOR LAYER   1


 STRESS PERIOD     LENGTH       TIME STEPS     MULTIPLIER FOR DELT    SS FLAG
 ----------------------------------------------------------------------------
        1         1000.000          1                    1.000         SS

 STEADY-STATE SIMULATION



 
 #MAXIMIN Sample Problem, BAS file                                               
 #December 2009                                                                  
 THE FREE FORMAT OPTION HAS BEEN SELECTED



                     BOUNDARY ARRAY FOR LAYER   1
 READING ON UNIT   12 WITH FORMAT: (20I4)              

                1           2           3           4           5           6           7           8           9          10
               11          12          13          14          15          16          17          18          19          20
               21          22          23          24          25          26          27          28          29          30
 ............................................................................................................................
   1           -1           1           1           1           1           1           1           1           1           1
                1           1           1           1           1           1           1           1           1           1
                1           1           1           1           1           1           1           1           1          -1
   2           -1           1           1           1           1           1           1           1           1           1
                1           1           1           1           1           1           1           1           1           1
                1           1           1           1           1           1           1           1           1          -1
   3           -1           1           1           1           1           1           1           1           1           1
                1           1           1           1           1           1           1           1           1           1
                1           1           1           1           1           1           1           1           1          -1
   4           -1           1           1           1           1           1           1           1           1           1
                1           1           1           1           1           1           1           1           1           1
                1           1           1           1           1           1           1           1           1          -1
   5           -1           1           1           1           1           1           1           1           1           1
                1           1           1           1           1           1           1           1           1           1
                1           1           1           1           1           1           1           1           1          -1
   6           -1           1           1           1           1           1           1           1           1           1
                1           1           1           1           1           1           1           1           1           1
                1           1           1           1           1           1           1           1           1          -1
   7           -1           1           1           1           1           1           1           1           1           1
                1           1           1           1           1           1           1           1           1           1
                1           1           1           1           1           1           1           1           1          -1
   8           -1           1           1           1           1           1           1           1           1           1
                1           1           1           1           1           1           1           1           1           1
                1           1           1           1           1           1           1           1           1          -1
   9           -1           1           1           1           1           1           1           1           1           1
                1           1           1           1           1           1           1           1           1           1
                1           1           1           1           1           1           1           1           1          -1
  10           -1           1           1           1           1           1           1           1           1           1
                1           1           1           1           1           1           1           1           1           1
                1           1           1           1           1           1           1           1           1          -1
  11           -1           1           1           1           1           1           1           1           1           1
                1           1           1           1           1           1           1           1           1           1
                1           1           1           1           1           1           1           1           1          -1
  12           -1           1           1           1           1           1           1           1           1           1
                1           1           1           1           1           1           1           1           1           1
                1           1           1           1           1           1           1           1           1          -1
  13           -1           1           1           1           1           1           1           1           1           1
                1           1           1           1           1           1           1           1           1           1
                1           1           1           1           1           1           1           1           1          -1
  14           -1           1           1           1           1           1           1           1           1           1
                1           1           1           1           1           1           1           1           1           1
                1           1           1           1           1           1           1           1           1          -1
  15           -1           1           1           1           1           1           1           1           1           1
                1           1           1           1           1           1           1           1           1           1
                1           1           1           1           1           1           1           1           1          -1
  16           -1           1           1           1           1           1           1           1           1           1
                1           1           1           1           1           1           1           1           1           1
                1           1           1           1           1           1           1           1           1          -1
  17           -1           1           1           1           1           1           1           1           1           1
                1           1           1           1           1           1           1           1           1           1
                1           1           1           1           1           1           1           1           1          -1
  18           -1           1           1           1           1           1           1           1           1           1
                1           1           1           1           1           1           1           1           1           1
                1           1           1           1           1           1           1           1           1          -1
  19           -1           1           1           1           1           1           1           1           1           1
                1           1           1           1           1           1           1           1           1           1
                1           1           1           1           1           1           1           1           1          -1
  20           -1           1           1           1           1           1           1           1           1           1
                1           1           1           1           1           1           1           1           1           1
                1           1           1           1           1           1           1           1           1          -1

 AQUIFER HEAD WILL BE SET TO  0.0000     AT ALL NO-FLOW NODES (IBOUND=0).



                       INITIAL HEAD FOR LAYER   1
 READING ON UNIT   12 WITH FORMAT: (10F13.0)           

            1           2           3           4           5           6           7           8           9          10
           11          12          13          14          15          16          17          18          19          20
           21          22          23          24          25          26          27          28          29          30
 ........................................................................................................................
   1    80.00       70.00       70.00       70.00       70.00       70.00       70.00       70.00       70.00       70.00    
        70.00       70.00       70.00       70.00       70.00       70.00       70.00       70.00       70.00       70.00    
        70.00       70.00       70.00       70.00       70.00       70.00       70.00       70.00       70.00       60.00    
   2    80.00       70.00       70.00       70.00       70.00       70.00       70.00       70.00       70.00       70.00    
        70.00       70.00       70.00       70.00       70.00       70.00       70.00       70.00       70.00       70.00    
        70.00       70.00       70.00       70.00       70.00       70.00       70.00       70.00       70.00       60.00    
   3    80.00       70.00       70.00       70.00       70.00       70.00       70.00       70.00       70.00       70.00    
        70.00       70.00       70.00       70.00       70.00       70.00       70.00       70.00       70.00       70.00    
        70.00       70.00       70.00       70.00       70.00       70.00       70.00       70.00       70.00       60.00    
   4    80.00       70.00       70.00       70.00       70.00       70.00       70.00       70.00       70.00       70.00    
        70.00       70.00       70.00       70.00       70.00       70.00       70.00       70.00       70.00       70.00    
        70.00       70.00       70.00       70.00       70.00       70.00       70.00       70.00       70.00       60.00    
   5    80.00       70.00       70.00       70.00       70.00       70.00       70.00       70.00       70.00       70.00    
        70.00       70.00       70.00       70.00       70.00       70.00       70.00       70.00       70.00       70.00    
        70.00       70.00       70.00       70.00       70.00       70.00       70.00       70.00       70.00       60.00    
   6    80.00       70.00       70.00       70.00       70.00       70.00       70.00       70.00       70.00       70.00    
        70.00       70.00       70.00       70.00       70.00       70.00       70.00       70.00       70.00       70.00    
        70.00       70.00       70.00       70.00       70.00       70.00       70.00       70.00       70.00       60.00    
   7    80.00       70.00       70.00       70.00       70.00       70.00       70.00       70.00       70.00       70.00    
        70.00       70.00       70.00       70.00       70.00       70.00       70.00       70.00       70.00       70.00    
        70.00       70.00       70.00       70.00       70.00       70.00       70.00       70.00       70.00       60.00    
   8    80.00       70.00       70.00       70.00       70.00       70.00       70.00       70.00       70.00       70.00    
        70.00       70.00       70.00       70.00       70.00       70.00       70.00       70.00       70.00       70.00    
        70.00       70.00       70.00       70.00       70.00       70.00       70.00       70.00       70.00       60.00    
   9    80.00       70.00       70.00       70.00       70.00       70.00       70.00       70.00       70.00       70.00    
        70.00       70.00       70.00       70.00       70.00       70.00       70.00       70.00       70.00       70.00    
        70.00       70.00       70.00       70.00       70.00       70.00       70.00       70.00       70.00       60.00    
  10    80.00       70.00       70.00       70.00       70.00       70.00       70.00       70.00       70.00       70.00    
        70.00       70.00       70.00       70.00       70.00       70.00       70.00       70.00       70.00       70.00    
        70.00       70.00       70.00       70.00       70.00       70.00       70.00       70.00       70.00       60.00    
  11    80.00       70.00       70.00       70.00       70.00       70.00       70.00       70.00       70.00       70.00    
        70.00       70.00       70.00       70.00       70.00       70.00       70.00       70.00       70.00       70.00    
        70.00       70.00       70.00       70.00       70.00       70.00       70.00       70.00       70.00       60.00    
  12    80.00       70.00       70.00       70.00       70.00       70.00       70.00       70.00       70.00       70.00    
        70.00       70.00       70.00       70.00       70.00       70.00       70.00       70.00       70.00       70.00    
        70.00       70.00       70.00       70.00       70.00       70.00       70.00       70.00       70.00       60.00    
  13    80.00       70.00       70.00       70.00       70.00       70.00       70.00       70.00       70.00       70.00    
        70.00       70.00       70.00       70.00       70.00       70.00       70.00       70.00       70.00       70.00    
        70.00       70.00       70.00       70.00       70.00       70.00       70.00       70.00       70.00       60.00    
  14    80.00       70.00       70.00       70.00       70.00       70.00       70.00       70.00       70.00       70.00    
        70.00       70.00       70.00       70.00       70.00       70.00       70.00       70.00       70.00       70.00    
        70.00       70.00       70.00       70.00       70.00       70.00       70.00       70.00       70.00       60.00    
  15    80.00       70.00       70.00       70.00       70.00       70.00       70.00       70.00       70.00       70.00    
        70.00       70.00       70.00       70.00       70.00       70.00       70.00       70.00       70.00       70.00    
        70.00       70.00       70.00       70.00       70.00       70.00       70.00       70.00       70.00       60.00    
  16    80.00       70.00       70.00       70.00       70.00       70.00       70.00       70.00       70.00       70.00    
        70.00       70.00       70.00       70.00       70.00       70.00       70.00       70.00       70.00       70.00    
        70.00       70.00       70.00       70.00       70.00       70.00       70.00       70.00       70.00       60.00    
  17    80.00       70.00       70.00       70.00       70.00       70.00       70.00       70.00       70.00       70.00    
        70.00       70.00       70.00       70.00       70.00       70.00       70.00       70.00       70.00       70.00    
        70.00       70.00       70.00       70.00       70.00       70.00       70.00       70.00       70.00       60.00    
  18    80.00       70.00       70.00       70.00       70.00       70.00       70.00       70.00       70.00       70.00    
        70.00       70.00       70.00       70.00       70.00       70.00       70.00       70.00       70.00       70.00    
        70.00       70.00       70.00       70.00       70.00       70.00       70.00       70.00       70.00       60.00    
  19    80.00       70.00       70.00       70.00       70.00       70.00       70.00       70.00       70.00       70.00    
        70.00       70.00       70.00       70.00       70.00       70.00       70.00       70.00       70.00       70.00    
        70.00       70.00       70.00       70.00       70.00       70.00       70.00       70.00       70.00       60.00    
  20    80.00       70.00       70.00       70.00       70.00       70.00       70.00       70.00       70.00       70.00    
        70.00       70.00       70.00       70.00       70.00       70.00       70.00       70.00       70.00       70.00    
        70.00       70.00       70.00       70.00       70.00       70.00       70.00       70.00       70.00       60.00    

 DEFAULT OUTPUT CONTROL
 THE FOLLOWING OUTPUT COMES AT THE END OF EACH STRESS PERIOD:
 TOTAL VOLUMETRIC BUDGET
           HEAD

 LPF -- LAYER-PROPERTY FLOW PACKAGE, VERSION 7, 5/2/2005
         INPUT READ FROM UNIT   13
 #MAXIMIN Sample Problem, LPF file
 #December 2009
 HEAD AT CELLS THAT CONVERT TO DRY=   0.0000    
 No named parameters

   LAYER FLAGS:
 LAYER       LAYTYP        LAYAVG         CHANI        LAYVKA        LAYWET
 ---------------------------------------------------------------------------
    1             0             0     1.000E+00             1             0

   INTERPRETATION OF LAYER FLAGS:
                        INTERBLOCK     HORIZONTAL    DATA IN
         LAYER TYPE   TRANSMISSIVITY   ANISOTROPY   ARRAY VKA   WETTABILITY
 LAYER      (LAYTYP)      (LAYAVG)       (CHANI)      (LAYVKA)      (LAYWET)
 ---------------------------------------------------------------------------
    1      CONFINED      HARMONIC     1.000E+00    ANISOTROPY  NON-WETTABLE

 WETTING CAPABILITY IS NOT ACTIVE IN ANY LAYER

    HYD. COND. ALONG ROWS =  0.500000     FOR LAYER   1

  HORIZ. TO VERTICAL ANI. =   1.00000     FOR LAYER   1
1
                            STRESS PERIOD NO.    1, LENGTH =   1000.000    
                            -----------------------------------------------

                              NUMBER OF TIME STEPS =     1

                               MULTIPLIER FOR DELT =     1.000

                            INITIAL TIME STEP SIZE =   1000.000    
 
 SOLVING FOR HEAD 


    10 CALLS TO PCG ROUTINE FOR TIME STEP   1 IN STRESS PERIOD    1
    44 TOTAL ITERATIONS

 MAXIMUM HEAD CHANGE FOR EACH ITERATION (1 INDICATES THE FIRST INNER ITERATION):

    HEAD CHANGE    HEAD CHANGE    HEAD CHANGE    HEAD CHANGE    HEAD CHANGE 
   LAYER,ROW,COL  LAYER,ROW,COL  LAYER,ROW,COL  LAYER,ROW,COL  LAYER,ROW,COL
 ---------------------------------------------------------------------------
  1  -37.41      0  -17.50      0  -6.128      0  -2.888      0   1.766    
   (  1,  3, 15)  (  1,  1, 19)  (  1,  1, 25)  (  1, 20, 10)  (  1,  1,  5)
  1  0.9132      0 -0.5757      0  0.5056      0  0.3108      0  0.2185    
   (  1, 17, 23)  (  1,  7, 13)  (  1,  3,  8)  (  1,  2, 21)  (  1,  1, 12)
  1 -0.1426      0 -0.5836E-01  0 -0.2681E-01  0  0.1421E-01  0  0.8975E-02
   (  1,  3, 15)  (  1, 20, 21)  (  1, 20, 14)  (  1,  3, 23)  (  1,  2,  8)
  1  0.5693E-02  0 -0.2751E-02  0  0.3444E-02  0  0.1699E-02  0  0.1262E-02
   (  1, 17, 23)  (  1,  6, 12)  (  1,  4,  9)  (  1,  2, 21)  (  1,  2, 13)
  1 -0.8682E-03  0 -0.3249E-03  0 -0.1486E-03  0  0.8933E-04  0  0.6247E-04
   (  1,  3, 15)  (  1, 20, 21)  (  1, 20, 14)  (  1,  3, 23)  (  1,  3,  8)
  1  0.3522E-04  0 -0.1727E-04  0  0.2246E-04  0  0.1059E-04  0  0.8047E-05
   (  1, 17, 23)  (  1, 11, 18)  (  1,  4,  9)  (  1,  2, 21)  (  1,  2, 13)
  1 -0.5518E-05  0 -0.1798E-05  0  0.8814E-06  0  0.5606E-06  0  0.4151E-06
   (  1,  3, 15)  (  1, 20, 21)  (  1, 18, 21)  (  1,  3, 23)  (  1,  3,  8)
  1  0.2180E-06  0 -0.1103E-06  0  0.1466E-06  0  0.6779E-07  0  0.5145E-07
   (  1, 17, 23)  (  1, 11, 18)  (  1,  4,  9)  (  1,  2, 21)  (  1,  2, 13)
  1 -0.3549E-07  0 -0.1112E-07  0 -0.5904E-08  1 -0.3411E-08
   (  1,  3, 15)  (  1,  5, 24)  (  1, 12, 23)  (  1, 15, 18)

 MAXIMUM RESIDUAL FOR EACH ITERATION (1 INDICATES THE FIRST INNER ITERATION):

    RESIDUAL       RESIDUAL       RESIDUAL       RESIDUAL       RESIDUAL    
   LAYER,ROW,COL  LAYER,ROW,COL  LAYER,ROW,COL  LAYER,ROW,COL  LAYER,ROW,COL
 ---------------------------------------------------------------------------
  1   1548.      0   635.2      0   259.1      0   163.9      0  -88.21    
   (  1,  3, 15)  (  1,  3, 15)  (  1,  3, 15)  (  1,  2, 16)  (  1,  2, 29)
  1  -63.32      0   38.62      0   16.83      0   10.97      0   8.744    
   (  1,  2, 29)  (  1,  4, 14)  (  1,  2, 28)  (  1,  3, 15)  (  1,  3, 15)
  1   5.286      0   2.193      0   1.187      0  0.8461      0  0.5002    
   (  1,  3, 15)  (  1,  3, 15)  (  1,  2, 16)  (  1,  2, 16)  (  1,  2, 16)
  1  0.3391      0  0.2177      0 -0.8574E-01  0  0.6039E-01  0  0.4859E-01
   (  1,  2, 16)  (  1,  2, 16)  (  1,  3,  2)  (  1,  3, 15)  (  1,  3, 15)
  1  0.2778E-01  0  0.1228E-01  0  0.7132E-02  0  0.5091E-02  0  0.3044E-02
   (  1,  3, 15)  (  1,  3, 15)  (  1,  2, 16)  (  1,  2, 16)  (  1,  2, 16)
  1  0.1998E-02  0  0.1321E-02  0 -0.5604E-03  0  0.3594E-03  0  0.2859E-03
   (  1,  2, 16)  (  1,  2, 16)  (  1,  2,  2)  (  1,  3, 15)  (  1,  3, 15)
  1  0.1558E-03  0 -0.7605E-04  0  0.4382E-04  0  0.3139E-04  0  0.1892E-04
   (  1,  3, 15)  (  1,  3,  2)  (  1,  2, 16)  (  1,  2, 16)  (  1,  2, 16)
  1  0.1202E-04  0  0.8123E-05  0 -0.3701E-05  0  0.2247E-05  0  0.1741E-05
   (  1,  2, 16)  (  1,  2, 16)  (  1,  2,  2)  (  1,  3, 15)  (  1,  3, 15)
  1  0.9134E-06  0 -0.4873E-06  0 -0.2876E-06  1 -0.2393E-06
   (  1,  3, 15)  (  1,  3,  2)  (  1,  1,  2)  (  1,  1,  2)


1
              HEAD IN LAYER   1 AT END OF TIME STEP   1 IN STRESS PERIOD    1
  ---------------------------------------------------------------------------

            1           2           3           4           5           6           7           8           9          10
           11          12          13          14          15          16          17          18          19          20
           21          22          23          24          25          26          27          28          29          30
 ........................................................................................................................
   1    80.00       76.98       73.93       70.86       67.73       64.54       61.24       57.82       54.24       50.45    
        46.44       42.20       37.83       33.74       31.08       31.88       34.12       36.69       39.18       41.49    
        43.64       45.66       47.59       49.44       51.26       53.03       54.79       56.54       58.27       60.00    
   2    80.00       76.99       73.97       70.91       67.81       64.63       61.37       57.98       54.43       50.69    
        46.68       42.32       37.54       32.32       27.61       30.45       33.80       36.76       39.35       41.66    
        43.77       45.76       47.65       49.49       51.29       53.06       54.81       56.54       58.27       60.00    
   3    80.00       77.02       74.03       71.01       67.95       64.82       61.61       58.30       54.83       51.18    
        47.25       42.88       37.68       30.40       16.61       28.48       33.87       37.22       39.80       42.01    
        44.03       45.94       47.78       49.58       51.35       53.10       54.83       56.56       58.28       60.00    
   4    80.00       77.07       74.13       71.16       68.15       65.10       61.97       58.76       55.43       51.95    
        48.26       44.28       39.89       34.99       30.39       33.02       35.96       38.46       40.61       42.56    
        44.40       46.19       47.95       49.69       51.43       53.15       54.87       56.58       58.29       60.00    
   5    80.00       77.13       74.24       71.34       68.41       65.44       62.42       59.33       56.17       52.92    
        49.56       46.10       42.60       39.29       36.95       37.23       38.50       40.04       41.62       43.22    
        44.83       46.47       48.13       49.82       51.51       53.21       54.91       56.61       58.31       60.00    
   6    80.00       77.19       74.38       71.55       68.70       65.83       62.93       59.99       57.01       54.00    
        50.97       47.97       45.11       42.61       40.91       40.43       40.78       41.58       42.63       43.86    
        45.23       46.72       48.30       49.93       51.60       53.27       54.96       56.64       58.32       60.00    
   7    80.00       77.27       74.53       71.78       69.03       66.26       63.47       60.68       57.88       55.09    
        52.35       49.70       47.24       45.15       43.63       42.82       42.62       42.87       43.46       44.35    
        45.51       46.89       48.41       50.02       51.66       53.33       55.00       56.67       58.34       60.00    
   8    80.00       77.34       74.68       72.02       69.36       66.69       64.03       61.38       58.74       56.15    
        53.63       51.23       49.03       47.12       45.63       44.60       44.01       43.81       43.98       44.56    
        45.58       46.91       48.44       50.06       51.71       53.38       55.04       56.70       58.35       60.00    
   9    80.00       77.42       74.84       72.26       69.69       67.13       64.58       62.05       59.56       57.13    
        54.78       52.56       50.51       48.69       47.16       45.93       45.01       44.38       44.10       44.34    
        45.32       46.75       48.37       50.06       51.76       53.44       55.10       56.74       58.37       60.00    
  10    80.00       77.50       75.00       72.50       70.02       67.55       65.11       62.70       60.33       58.03    
        55.81       53.71       51.76       49.97       48.38       46.97       45.72       44.60       43.69       43.40    
        44.62       46.38       48.24       50.06       51.81       53.51       55.17       56.79       58.40       60.00    
  11    80.00       77.57       75.15       72.73       70.33       67.95       65.60       63.29       61.03       58.84    
        56.73       54.72       52.83       51.07       49.42       47.85       46.29       44.60       42.68       40.93    
        43.37       45.92       48.15       50.12       51.92       53.63       55.26       56.86       58.44       60.00    
  12    80.00       77.64       75.29       72.94       70.62       68.32       66.05       63.83       61.67       59.56    
        57.54       55.61       53.78       52.04       50.38       48.73       46.98       44.83       41.50       34.29    
        41.99       45.79       48.32       50.35       52.14       53.81       55.40       56.95       58.48       60.00    
  13    80.00       77.70       75.42       73.14       70.88       68.66       66.47       64.32       62.23       60.21    
        58.27       56.41       54.64       52.95       51.32       49.72       48.07       46.26       44.18       42.27    
        44.53       46.92       48.99       50.81       52.48       54.06       55.58       57.07       58.54       60.00    
  14    80.00       77.76       75.53       73.31       71.12       68.96       66.83       64.75       62.73       60.78    
        58.91       57.11       55.41       53.79       52.24       50.76       49.32       47.94       46.71       46.07    
        46.94       48.37       49.91       51.43       52.92       54.36       55.79       57.20       58.60       60.00    
  15    80.00       77.81       75.63       73.47       71.32       69.22       67.15       65.13       63.17       61.28    
        59.46       57.73       56.09       54.55       53.10       51.76       50.52       49.45       48.66       48.36    
        48.79       49.70       50.85       52.09       53.38       54.69       56.01       57.34       58.67       60.00    
  16    80.00       77.85       75.72       73.60       71.50       69.43       67.41       65.44       63.53       61.69    
        59.93       58.26       56.69       55.22       53.86       52.63       51.56       50.70       50.11       49.91    
        50.17       50.80       51.68       52.71       53.83       55.02       56.24       57.48       58.74       60.00    
  17    80.00       77.89       75.79       73.70       71.64       69.61       67.63       65.70       63.83       62.03    
        60.32       58.69       57.17       55.77       54.49       53.36       52.40       51.66       51.18       51.01    
        51.18       51.65       52.36       53.23       54.22       55.30       56.43       57.60       58.80       60.00    
  18    80.00       77.91       75.84       73.78       71.74       69.75       67.79       65.89       64.05       62.29    
        60.61       59.02       57.55       56.19       54.97       53.91       53.02       52.35       51.93       51.77    
        51.89       52.27       52.87       53.63       54.53       55.53       56.59       57.70       58.84       60.00    
  19    80.00       77.93       75.87       73.83       71.82       69.84       67.90       66.02       64.20       62.46    
        60.80       59.25       57.80       56.47       55.29       54.27       53.44       52.81       52.41       52.25    
        52.35       52.68       53.21       53.91       54.74       55.68       56.70       57.77       58.88       60.00    
  20    80.00       77.94       75.89       73.86       71.85       69.88       67.96       66.08       64.28       62.55    
        60.90       59.36       57.93       56.62       55.46       54.46       53.64       53.03       52.64       52.49    
        52.57       52.87       53.37       54.04       54.85       55.76       56.76       57.81       58.90       60.00    
1
  VOLUMETRIC BUDGET FOR ENTIRE MODEL AT END OF TIME STEP  1 IN STRESS PERIOD   1
  ------------------------------------------------------------------------------

     CUMULATIVE VOLUMES      L**3       RATES FOR THIS TIME STEP      L**3/T
     ------------------                 ------------------------

           IN:                                      IN:
           ---                                      ---
             STORAGE =           0.0000               STORAGE =           0.0000
       CONSTANT HEAD =     4000000.0036         CONSTANT HEAD =        4000.0000
        MANAGED FLOW =           0.0000          MANAGED FLOW =           0.0000

            TOTAL IN =     4000000.0036              TOTAL IN =        4000.0000

          OUT:                                     OUT:
          ----                                     ----
             STORAGE =           0.0000               STORAGE =           0.0000
       CONSTANT HEAD =           0.0000         CONSTANT HEAD =           0.0000
        MANAGED FLOW =     4000000.0000          MANAGED FLOW =        4000.0000

           TOTAL OUT =     4000000.0000             TOTAL OUT =        4000.0000

            IN - OUT =       3.6134E-03              IN - OUT =       3.6134E-06

 PERCENT DISCREPANCY =           0.00     PERCENT DISCREPANCY =           0.00






          TIME SUMMARY AT END OF TIME STEP   1 IN STRESS PERIOD    1
                    SECONDS     MINUTES      HOURS       DAYS        YEARS
                    -----------------------------------------------------------
   TIME STEP LENGTH 8.64000E+07 1.44000E+06  24000.      1000.0      2.7379    
 STRESS PERIOD TIME 8.64000E+07 1.44000E+06  24000.      1000.0      2.7379    
         TOTAL TIME 8.64000E+07 1.44000E+06  24000.      1000.0      2.7379    
1

 Run end date and time (yyyy/mm/dd hh:mm:ss): 2012/06/28 11:33:14
 Elapsed run time:  0.062 Seconds

