                                  MODFLOW-LGR      
      U.S. GEOLOGICAL SURVEY MODULAR FINITE-DIFFERENCE GROUND-WATER FLOW MODEL
                VERSION GWM2005 1.2.01 012210,FROM MF-LGR V1.1.2


     FINAL FLOW PROCESS SIMULATION FOR GWM                                                                                                                                                                   


 REWOUND ..\data\DEWATERMB\dewater.dis
 FILE TYPE:DIS   UNIT   11

 REWOUND ..\data\DEWATERMB\dewater.ba6
 FILE TYPE:BAS6   UNIT   12

 REWOUND ..\data\DEWATERMB\dewater.bc6
 FILE TYPE:BCF6   UNIT   13

 REWOUND ..\data\DEWATERMB\dewater.pcg
 FILE TYPE:PCG   UNIT   14

 REWOUND ..\data\DEWATERMB\dewatermb.gwm
 FILE TYPE:GWM   UNIT   15

 BAS -- BASIC PACKAGE, VERSION 7, 5/2/2005 INPUT READ FROM UNIT   12

 DISCRETIZATION INPUT DATA READ FROM UNIT   11
 #DEWATER Sample Problem
 #February 20, 2005
    1 LAYERS        20 ROWS        30 COLUMNS
    1 STRESS PERIOD(S) IN SIMULATION
 MODEL TIME UNIT IS DAYS
 MODEL LENGTH UNIT IS UNDEFINED
  Confining bed flag for each layer:
   0

                     DELR =   100.000    

                     DELC =   100.000    

 TOP ELEVATION OF LAYER 1 =   100.000    

   MODEL LAYER BOTTOM EL. =   100.000     FOR LAYER   1


 STRESS PERIOD     LENGTH       TIME STEPS     MULTIPLIER FOR DELT    SS FLAG
 ----------------------------------------------------------------------------
        1         1000.000          1                    1.000         SS

 STEADY-STATE SIMULATION



 
 #DEWATER Sample Problem                                                         
 #February 20, 2005                                                              
 THE FREE FORMAT OPTION HAS BEEN SELECTED



                     BOUNDARY ARRAY FOR LAYER   1
 READING ON UNIT   12 WITH FORMAT: (20I4)              

                1           2           3           4           5           6           7           8           9          10
               11          12          13          14          15          16          17          18          19          20
               21          22          23          24          25          26          27          28          29          30
 ............................................................................................................................
   1           -1           1           1           1           1           1           1           1           1           1
                1           1           1           1           1           1           1           1           1           1
                1           1           1           1           1           1           1           1           1          -1
   2           -1           1           1           1           1           1           1           1           1           1
                1           1           1           1           1           1           1           1           1           1
                1           1           1           1           1           1           1           1           1          -1
   3           -1           1           1           1           1           1           1           1           1           1
                1           1           1           1           1           1           1           1           1           1
                1           1           1           1           1           1           1           1           1          -1
   4           -1           1           1           1           1           1           1           1           1           1
                1           1           1           1           1           1           1           1           1           1
                1           1           1           1           1           1           1           1           1          -1
   5           -1           1           1           1           1           1           1           1           1           1
                1           1           1           1           1           1           1           1           1           1
                1           1           1           1           1           1           1           1           1          -1
   6           -1           1           1           1           1           1           1           1           1           1
                1           1           1           1           1           1           1           1           1           1
                1           1           1           1           1           1           1           1           1          -1
   7           -1           1           1           1           1           1           1           1           1           1
                1           1           1           1           1           1           1           1           1           1
                1           1           1           1           1           1           1           1           1          -1
   8           -1           1           1           1           1           1           1           1           1           1
                1           1           1           1           1           1           1           1           1           1
                1           1           1           1           1           1           1           1           1          -1
   9           -1           1           1           1           1           1           1           1           1           1
                1           1           1           1           1           1           1           1           1           1
                1           1           1           1           1           1           1           1           1          -1
  10           -1           1           1           1           1           1           1           1           1           1
                1           1           1           1           1           1           1           1           1           1
                1           1           1           1           1           1           1           1           1          -1
  11           -1           1           1           1           1           1           1           1           1           1
                1           1           1           1           1           1           1           1           1           1
                1           1           1           1           1           1           1           1           1          -1
  12           -1           1           1           1           1           1           1           1           1           1
                1           1           1           1           1           1           1           1           1           1
                1           1           1           1           1           1           1           1           1          -1
  13           -1           1           1           1           1           1           1           1           1           1
                1           1           1           1           1           1           1           1           1           1
                1           1           1           1           1           1           1           1           1          -1
  14           -1           1           1           1           1           1           1           1           1           1
                1           1           1           1           1           1           1           1           1           1
                1           1           1           1           1           1           1           1           1          -1
  15           -1           1           1           1           1           1           1           1           1           1
                1           1           1           1           1           1           1           1           1           1
                1           1           1           1           1           1           1           1           1          -1
  16           -1           1           1           1           1           1           1           1           1           1
                1           1           1           1           1           1           1           1           1           1
                1           1           1           1           1           1           1           1           1          -1
  17           -1           1           1           1           1           1           1           1           1           1
                1           1           1           1           1           1           1           1           1           1
                1           1           1           1           1           1           1           1           1          -1
  18           -1           1           1           1           1           1           1           1           1           1
                1           1           1           1           1           1           1           1           1           1
                1           1           1           1           1           1           1           1           1          -1
  19           -1           1           1           1           1           1           1           1           1           1
                1           1           1           1           1           1           1           1           1           1
                1           1           1           1           1           1           1           1           1          -1
  20           -1           1           1           1           1           1           1           1           1           1
                1           1           1           1           1           1           1           1           1           1
                1           1           1           1           1           1           1           1           1          -1

 AQUIFER HEAD WILL BE SET TO  0.0000     AT ALL NO-FLOW NODES (IBOUND=0).



                       INITIAL HEAD FOR LAYER   1
 READING ON UNIT   12 WITH FORMAT: (10F13.0)           

            1           2           3           4           5           6           7           8           9          10
           11          12          13          14          15          16          17          18          19          20
           21          22          23          24          25          26          27          28          29          30
 ........................................................................................................................
   1    80.00       70.00       70.00       70.00       70.00       70.00       70.00       70.00       70.00       70.00    
        70.00       70.00       70.00       70.00       70.00       70.00       70.00       70.00       70.00       70.00    
        70.00       70.00       70.00       70.00       70.00       70.00       70.00       70.00       70.00       60.00    
   2    80.00       70.00       70.00       70.00       70.00       70.00       70.00       70.00       70.00       70.00    
        70.00       70.00       70.00       70.00       70.00       70.00       70.00       70.00       70.00       70.00    
        70.00       70.00       70.00       70.00       70.00       70.00       70.00       70.00       70.00       60.00    
   3    80.00       70.00       70.00       70.00       70.00       70.00       70.00       70.00       70.00       70.00    
        70.00       70.00       70.00       70.00       70.00       70.00       70.00       70.00       70.00       70.00    
        70.00       70.00       70.00       70.00       70.00       70.00       70.00       70.00       70.00       60.00    
   4    80.00       70.00       70.00       70.00       70.00       70.00       70.00       70.00       70.00       70.00    
        70.00       70.00       70.00       70.00       70.00       70.00       70.00       70.00       70.00       70.00    
        70.00       70.00       70.00       70.00       70.00       70.00       70.00       70.00       70.00       60.00    
   5    80.00       70.00       70.00       70.00       70.00       70.00       70.00       70.00       70.00       70.00    
        70.00       70.00       70.00       70.00       70.00       70.00       70.00       70.00       70.00       70.00    
        70.00       70.00       70.00       70.00       70.00       70.00       70.00       70.00       70.00       60.00    
   6    80.00       70.00       70.00       70.00       70.00       70.00       70.00       70.00       70.00       70.00    
        70.00       70.00       70.00       70.00       70.00       70.00       70.00       70.00       70.00       70.00    
        70.00       70.00       70.00       70.00       70.00       70.00       70.00       70.00       70.00       60.00    
   7    80.00       70.00       70.00       70.00       70.00       70.00       70.00       70.00       70.00       70.00    
        70.00       70.00       70.00       70.00       70.00       70.00       70.00       70.00       70.00       70.00    
        70.00       70.00       70.00       70.00       70.00       70.00       70.00       70.00       70.00       60.00    
   8    80.00       70.00       70.00       70.00       70.00       70.00       70.00       70.00       70.00       70.00    
        70.00       70.00       70.00       70.00       70.00       70.00       70.00       70.00       70.00       70.00    
        70.00       70.00       70.00       70.00       70.00       70.00       70.00       70.00       70.00       60.00    
   9    80.00       70.00       70.00       70.00       70.00       70.00       70.00       70.00       70.00       70.00    
        70.00       70.00       70.00       70.00       70.00       70.00       70.00       70.00       70.00       70.00    
        70.00       70.00       70.00       70.00       70.00       70.00       70.00       70.00       70.00       60.00    
  10    80.00       70.00       70.00       70.00       70.00       70.00       70.00       70.00       70.00       70.00    
        70.00       70.00       70.00       70.00       70.00       70.00       70.00       70.00       70.00       70.00    
        70.00       70.00       70.00       70.00       70.00       70.00       70.00       70.00       70.00       60.00    
  11    80.00       70.00       70.00       70.00       70.00       70.00       70.00       70.00       70.00       70.00    
        70.00       70.00       70.00       70.00       70.00       70.00       70.00       70.00       70.00       70.00    
        70.00       70.00       70.00       70.00       70.00       70.00       70.00       70.00       70.00       60.00    
  12    80.00       70.00       70.00       70.00       70.00       70.00       70.00       70.00       70.00       70.00    
        70.00       70.00       70.00       70.00       70.00       70.00       70.00       70.00       70.00       70.00    
        70.00       70.00       70.00       70.00       70.00       70.00       70.00       70.00       70.00       60.00    
  13    80.00       70.00       70.00       70.00       70.00       70.00       70.00       70.00       70.00       70.00    
        70.00       70.00       70.00       70.00       70.00       70.00       70.00       70.00       70.00       70.00    
        70.00       70.00       70.00       70.00       70.00       70.00       70.00       70.00       70.00       60.00    
  14    80.00       70.00       70.00       70.00       70.00       70.00       70.00       70.00       70.00       70.00    
        70.00       70.00       70.00       70.00       70.00       70.00       70.00       70.00       70.00       70.00    
        70.00       70.00       70.00       70.00       70.00       70.00       70.00       70.00       70.00       60.00    
  15    80.00       70.00       70.00       70.00       70.00       70.00       70.00       70.00       70.00       70.00    
        70.00       70.00       70.00       70.00       70.00       70.00       70.00       70.00       70.00       70.00    
        70.00       70.00       70.00       70.00       70.00       70.00       70.00       70.00       70.00       60.00    
  16    80.00       70.00       70.00       70.00       70.00       70.00       70.00       70.00       70.00       70.00    
        70.00       70.00       70.00       70.00       70.00       70.00       70.00       70.00       70.00       70.00    
        70.00       70.00       70.00       70.00       70.00       70.00       70.00       70.00       70.00       60.00    
  17    80.00       70.00       70.00       70.00       70.00       70.00       70.00       70.00       70.00       70.00    
        70.00       70.00       70.00       70.00       70.00       70.00       70.00       70.00       70.00       70.00    
        70.00       70.00       70.00       70.00       70.00       70.00       70.00       70.00       70.00       60.00    
  18    80.00       70.00       70.00       70.00       70.00       70.00       70.00       70.00       70.00       70.00    
        70.00       70.00       70.00       70.00       70.00       70.00       70.00       70.00       70.00       70.00    
        70.00       70.00       70.00       70.00       70.00       70.00       70.00       70.00       70.00       60.00    
  19    80.00       70.00       70.00       70.00       70.00       70.00       70.00       70.00       70.00       70.00    
        70.00       70.00       70.00       70.00       70.00       70.00       70.00       70.00       70.00       70.00    
        70.00       70.00       70.00       70.00       70.00       70.00       70.00       70.00       70.00       60.00    
  20    80.00       70.00       70.00       70.00       70.00       70.00       70.00       70.00       70.00       70.00    
        70.00       70.00       70.00       70.00       70.00       70.00       70.00       70.00       70.00       70.00    
        70.00       70.00       70.00       70.00       70.00       70.00       70.00       70.00       70.00       60.00    

 DEFAULT OUTPUT CONTROL
 THE FOLLOWING OUTPUT COMES AT THE END OF EACH STRESS PERIOD:
 TOTAL VOLUMETRIC BUDGET
           HEAD

 BCF -- BLOCK-CENTERED FLOW PACKAGE, VERSION 7, 5/2/2005
         INPUT READ FROM UNIT 13
 STEADY-STATE SIMULATION
 HEAD AT CELLS THAT CONVERT TO DRY=   0.0000    
 WETTING CAPABILITY IS ACTIVE
 WETTING FACTOR=   1.00000     WETTING ITERATION INTERVAL=   1
 FLAG THAT SPECIFIES THE EQUATION TO USE FOR HEAD AT WETTED CELLS=   0
      LAYER  LAYER-TYPE CODE     INTERBLOCK T
      --------------------------------------------
         1            0          0 -- HARMONIC    

 COLUMN TO ROW ANISOTROPY =   1.00000    

     TRANSMIS. ALONG ROWS =   50.0000     FOR LAYER   1
1
                            STRESS PERIOD NO.    1, LENGTH =   1000.000    
                            -----------------------------------------------

                              NUMBER OF TIME STEPS =     1

                               MULTIPLIER FOR DELT =     1.000

                            INITIAL TIME STEP SIZE =   1000.000    
 
 SOLVING FOR HEAD 


    10 CALLS TO PCG ROUTINE FOR TIME STEP   1 IN STRESS PERIOD    1
    45 TOTAL ITERATIONS

 MAXIMUM HEAD CHANGE FOR EACH ITERATION (1 INDICATES THE FIRST INNER ITERATION):

    HEAD CHANGE    HEAD CHANGE    HEAD CHANGE    HEAD CHANGE    HEAD CHANGE 
   LAYER,ROW,COL  LAYER,ROW,COL  LAYER,ROW,COL  LAYER,ROW,COL  LAYER,ROW,COL
 ---------------------------------------------------------------------------
  1  -26.30      0  -13.24      0   4.951      0   3.038      0   1.744    
   (  1,  7, 14)  (  1,  2, 18)  (  1,  1,  9)  (  1,  1, 10)  (  1,  1, 13)
  1 -0.8361      0  0.4127      0  0.2414      0  0.2896      0  0.1281    
   (  1,  4, 16)  (  1, 20,  9)  (  1, 19, 25)  (  1,  1, 11)  (  1,  5, 12)
  1 -0.7842E-01  0 -0.5539E-01  0  0.3612E-01  0  0.1053E-01  0  0.8422E-02
   (  1,  7, 14)  (  1,  6, 22)  (  1,  1, 10)  (  1,  3, 24)  (  1,  3, 15)
  1 -0.4172E-02  0  0.2825E-02  0  0.1539E-02  0  0.1651E-02  0  0.5484E-03
   (  1,  4, 16)  (  1,  5, 14)  (  1,  7,  9)  (  1,  2, 12)  (  1,  5, 12)
  1 -0.5013E-03  0 -0.3776E-03  0  0.2218E-03  0  0.7700E-04  0  0.5622E-04
   (  1,  7, 14)  (  1,  7, 22)  (  1,  2, 11)  (  1,  6,  8)  (  1,  1, 13)
  1 -0.2831E-04  0  0.1922E-04  0  0.1148E-04  0  0.1003E-04  0  0.3936E-05
   (  1,  5, 17)  (  1,  5, 14)  (  1,  7,  9)  (  1,  2, 11)  (  1,  5, 12)
  1 -0.3376E-05  0 -0.2578E-05  0  0.1528E-05  0  0.5148E-06  0  0.3842E-06
   (  1,  9, 16)  (  1,  7, 22)  (  1,  2, 11)  (  1,  6,  8)  (  1,  1, 13)
  1 -0.1895E-06  0  0.1349E-06  0  0.8111E-07  0  0.6713E-07  0  0.2699E-07
   (  1,  5, 17)  (  1,  5, 14)  (  1,  7, 10)  (  1,  2, 12)  (  1,  4, 11)
  1 -0.2329E-07  0 -0.1793E-07  0  0.1063E-07  0  0.3490E-08  1  0.2217E-08
   (  1,  9, 16)  (  1,  7, 22)  (  1,  2, 11)  (  1,  6,  8)  (  1,  7, 18)

 MAXIMUM RESIDUAL FOR EACH ITERATION (1 INDICATES THE FIRST INNER ITERATION):

    RESIDUAL       RESIDUAL       RESIDUAL       RESIDUAL       RESIDUAL    
   LAYER,ROW,COL  LAYER,ROW,COL  LAYER,ROW,COL  LAYER,ROW,COL  LAYER,ROW,COL
 ---------------------------------------------------------------------------
  1   670.8      0   282.2      0   202.4      0   91.51      0  -73.32    
   (  1,  7, 14)  (  1,  1, 29)  (  1,  1, 29)  (  1,  1, 29)  (  1,  2, 29)
  1  -51.79      0  -21.97      0   11.40      0  -4.891      0   3.729    
   (  1,  2, 29)  (  1,  2, 29)  (  1,  2, 28)  (  1,  3, 28)  (  1,  7, 14)
  1  -2.540      0  -1.370      0 -0.6813      0 -0.5011      0 -0.3190    
   (  1,  4,  2)  (  1,  4,  2)  (  1,  1,  2)  (  1,  2, 29)  (  1,  2, 29)
  1 -0.2479      0 -0.1138      0 -0.5772E-01  0 -0.2965E-01  0 -0.2200E-01
   (  1,  2, 29)  (  1,  1,  2)  (  1,  1,  2)  (  1,  3,  2)  (  1,  3, 28)
  1 -0.1660E-01  0 -0.9129E-02  0 -0.4474E-02  0 -0.2986E-02  0 -0.1960E-02
   (  1,  3,  2)  (  1,  3,  2)  (  1,  1,  2)  (  1,  2, 29)  (  1,  2, 29)
  1 -0.1535E-02  0 -0.7834E-03  0 -0.3879E-03  0 -0.2012E-03  0 -0.1473E-03
   (  1,  2, 29)  (  1,  1,  2)  (  1,  1,  2)  (  1,  3,  2)  (  1,  3, 28)
  1 -0.1132E-03  0 -0.6331E-04  0 -0.3086E-04  0 -0.1992E-04  0 -0.1273E-04
   (  1,  3,  2)  (  1,  3,  2)  (  1,  1,  2)  (  1,  2, 29)  (  1,  2, 29)
  1 -0.1000E-04  0 -0.5456E-05  0 -0.2681E-05  0 -0.1400E-05  0 -0.1010E-05
   (  1,  2, 29)  (  1,  1,  2)  (  1,  1,  2)  (  1,  3,  2)  (  1,  3, 28)
  1 -0.7842E-06  0 -0.4419E-06  0 -0.2155E-06  0 -0.1353E-06  1 -0.9972E-07
   (  1,  3,  2)  (  1,  3,  2)  (  1,  1,  2)  (  1,  2, 29)  (  1,  1,  2)


1
              HEAD IN LAYER   1 AT END OF TIME STEP   1 IN STRESS PERIOD    1
  ---------------------------------------------------------------------------

            1           2           3           4           5           6           7           8           9          10
           11          12          13          14          15          16          17          18          19          20
           21          22          23          24          25          26          27          28          29          30
 ........................................................................................................................
   1    80.00       77.70       75.41       73.13       70.85       68.60       66.38       64.20       62.10       60.11    
        58.27       56.63       55.26       54.20       53.49       53.09       52.97       53.07       53.34       53.73    
        54.21       54.76       55.35       55.98       56.62       57.28       57.96       58.63       59.32       60.00    
   2    80.00       77.70       75.40       73.11       70.83       68.57       66.33       64.13       62.00       59.96    
        58.06       56.37       54.94       53.87       53.17       52.82       52.75       52.90       53.22       53.64    
        54.15       54.72       55.32       55.95       56.61       57.27       57.95       58.63       59.31       60.00    
   3    80.00       77.70       75.39       73.09       70.80       68.51       66.24       63.99       61.79       59.66    
        57.65       55.83       54.28       53.15       52.50       52.25       52.31       52.58       52.98       53.47    
        54.03       54.63       55.26       55.91       56.58       57.25       57.94       58.62       59.31       60.00    
   4    80.00       77.69       75.38       73.06       70.75       68.44       66.12       63.81       61.52       59.26    
        57.06       55.00       53.22       51.95       51.41       51.39       51.67       52.11       52.65       53.24    
        53.86       54.51       55.18       55.86       56.54       57.23       57.92       58.61       59.31       60.00    
   5    80.00       77.68       75.36       73.04       70.71       68.36       66.00       63.62       61.21       58.78    
        56.33       53.90       51.65       50.01       49.81       50.24       50.87       51.55       52.26       52.97    
        53.67       54.38       55.09       55.79       56.50       57.20       57.90       58.60       59.30       60.00    
   6    80.00       77.68       75.36       73.02       70.67       68.30       65.90       63.45       60.93       58.32    
        55.57       52.62       49.48       46.63       47.59       48.87       50.00       50.98       51.87       52.70    
        53.49       54.25       55.00       55.73       56.46       57.17       57.88       58.59       59.30       60.00    
   7    80.00       77.68       75.36       73.02       70.66       68.28       65.85       63.35       60.75       58.00    
        55.00       51.53       47.01       39.43       45.06       47.66       49.28       50.50       51.54       52.46    
        53.32       54.14       54.92       55.68       56.42       57.15       57.87       58.58       59.29       60.00    
   8    80.00       77.69       75.37       73.04       70.68       68.29       65.86       63.34       60.72       57.94    
        54.91       51.49       47.61       43.86       45.55       47.43       48.96       50.22       51.31       52.30    
        53.20       54.06       54.87       55.65       56.40       57.14       57.86       58.58       59.29       60.00    
   9    80.00       77.70       75.40       73.08       70.74       68.36       65.94       63.45       60.86       58.13    
        55.19       51.92       48.10       42.84       45.85       47.56       48.90       50.10       51.20       52.21    
        53.14       54.02       54.84       55.63       56.40       57.14       57.87       58.58       59.29       60.00    
  10    80.00       77.72       75.44       73.14       70.82       68.48       66.09       63.65       61.14       58.52    
        55.79       52.92       50.00       47.45       47.45       48.05       49.00       50.08       51.17       52.19    
        53.14       54.03       54.86       55.65       56.41       57.15       57.88       58.59       59.30       60.00    
  11    80.00       77.75       75.49       73.22       70.94       68.64       66.30       63.93       61.51       59.04    
        56.51       53.97       51.54       49.50       48.46       48.18       48.95       50.07       51.19       52.24    
        53.20       54.09       54.91       55.70       56.45       57.19       57.90       58.61       59.30       60.00    
  12    80.00       77.78       75.55       73.32       71.08       68.82       66.55       64.26       61.94       59.61    
        57.26       54.93       52.66       50.56       48.71       47.24       48.58       50.04       51.30       52.38    
        53.34       54.21       55.01       55.78       56.52       57.23       57.93       58.63       59.32       60.00    
  13    80.00       77.81       75.62       73.42       71.23       69.03       66.82       64.61       62.40       60.19    
        57.99       55.81       53.63       51.38       48.58       43.50       48.08       50.22       51.59       52.65    
        53.56       54.38       55.15       55.89       56.60       57.29       57.98       58.66       59.33       60.00    
  14    80.00       77.84       75.69       73.53       71.38       69.23       67.09       64.96       62.85       60.76    
        58.70       56.68       54.69       52.72       50.73       48.98       50.00       51.17       52.19       53.07    
        53.87       54.62       55.33       56.02       56.70       57.37       58.03       58.69       59.34       60.00    
  15    80.00       77.88       75.75       73.64       71.53       69.43       67.36       65.30       63.28       61.29    
        59.37       57.51       55.74       54.09       52.65       51.68       51.77       52.28       52.92       53.58    
        54.23       54.88       55.52       56.17       56.80       57.44       58.08       58.72       59.36       60.00    
  16    80.00       77.91       75.82       73.73       71.67       69.62       67.59       65.61       63.66       61.78    
        59.97       58.25       56.66       55.25       54.09       53.33       53.12       53.27       53.62       54.08    
        54.60       55.15       55.72       56.31       56.91       57.52       58.14       58.75       59.38       60.00    
  17    80.00       77.93       75.87       73.82       71.78       69.78       67.80       65.87       63.99       62.18    
        60.47       58.87       57.41       56.15       55.13       54.44       54.10       54.06       54.23       54.53    
        54.93       55.40       55.91       56.45       57.01       57.59       58.18       58.79       59.39       60.00    
  18    80.00       77.95       75.91       73.89       71.88       69.90       67.96       66.07       64.25       62.50    
        60.86       59.34       57.98       56.80       55.86       55.18       54.78       54.63       54.69       54.89    
        55.21       55.60       56.06       56.56       57.09       57.65       58.23       58.81       59.40       60.00    
  19    80.00       77.97       75.94       73.93       71.94       69.99       68.07       66.21       64.42       62.72    
        61.12       59.65       58.35       57.22       56.32       55.65       55.22       55.01       55.00       55.13    
        55.39       55.75       56.17       56.64       57.15       57.69       58.25       58.83       59.41       60.00    
  20    80.00       77.98       75.96       73.96       71.98       70.03       68.13       66.28       64.51       62.83    
        61.25       59.81       58.53       57.43       56.54       55.87       55.43       55.20       55.15       55.26    
        55.49       55.82       56.22       56.68       57.18       57.72       58.27       58.84       59.42       60.00    
1
  VOLUMETRIC BUDGET FOR ENTIRE MODEL AT END OF TIME STEP  1 IN STRESS PERIOD   1
  ------------------------------------------------------------------------------

     CUMULATIVE VOLUMES      L**3       RATES FOR THIS TIME STEP      L**3/T
     ------------------                 ------------------------

           IN:                                      IN:
           ---                                      ---
             STORAGE =           0.0000               STORAGE =           0.0000
       CONSTANT HEAD =     2879905.3980         CONSTANT HEAD =        2879.9054
        MANAGED FLOW =           0.0000          MANAGED FLOW =           0.0000

            TOTAL IN =     2879905.3980              TOTAL IN =        2879.9054

          OUT:                                     OUT:
          ----                                     ----
             STORAGE =           0.0000               STORAGE =           0.0000
       CONSTANT HEAD =           0.0000         CONSTANT HEAD =           0.0000
        MANAGED FLOW =     2879905.3955          MANAGED FLOW =        2879.9054

           TOTAL OUT =     2879905.3955             TOTAL OUT =        2879.9054

            IN - OUT =       2.4535E-03              IN - OUT =       2.4535E-06

 PERCENT DISCREPANCY =           0.00     PERCENT DISCREPANCY =           0.00






          TIME SUMMARY AT END OF TIME STEP   1 IN STRESS PERIOD    1
                    SECONDS     MINUTES      HOURS       DAYS        YEARS
                    -----------------------------------------------------------
   TIME STEP LENGTH 8.64000E+07 1.44000E+06  24000.      1000.0      2.7379    
 STRESS PERIOD TIME 8.64000E+07 1.44000E+06  24000.      1000.0      2.7379    
         TOTAL TIME 8.64000E+07 1.44000E+06  24000.      1000.0      2.7379    
1

 Run end date and time (yyyy/mm/dd hh:mm:ss): 2010/01/22  7:08:44
 Elapsed run time:  0.998 Seconds

