                                  MODFLOW-LGR      
      U.S. GEOLOGICAL SURVEY MODULAR FINITE-DIFFERENCE GROUNDWATER FLOW MODEL
                  VERSION GWM-2005 1.3 012611,FROM MF-LGR V1.2


     FINAL FLOW PROCESS SIMULATION FOR GWM                                                                                                                                                                   


 REWOUND ..\data\SEAWATER-LGRSTA\sealgrsta_chd.dis
 FILE TYPE:DIS   UNIT   21

 REWOUND ..\data\SEAWATER-LGRSTA\sealgrsta_chd.ba6
 FILE TYPE:BAS6   UNIT   22

 REWOUND ..\data\SEAWATER-LGRSTA\sealgrsta.bc6
 FILE TYPE:BCF6   UNIT   23

 REWOUND ..\data\SEAWATER-LGRSTA\sealgrsta_chd.rch
 FILE TYPE:RCH   UNIT   25

 REWOUND ..\data\SEAWATER-LGRSTA\sealgrsta.gmg
 FILE TYPE:GMG   UNIT   26

 REWOUND ..\data\SEAWATER-LGRSTA\sealgrsta_chd.gwm
 FILE TYPE:GWM   UNIT   28

 BAS -- BASIC PACKAGE, VERSION 7, 5/2/2005 INPUT READ FROM UNIT   22

 DISCRETIZATION INPUT DATA READ FROM UNIT   21
 #SEAWATER-LGR Sample Problem, DIS-Package child file
 #December, 2007
    2 LAYERS        25 ROWS        40 COLUMNS
    1 STRESS PERIOD(S) IN SIMULATION
 MODEL TIME UNIT IS DAYS
 MODEL LENGTH UNIT IS UNDEFINED
  Confining bed flag for each layer:
   0   0

                     DELR =   66.6667    

                     DELC =   66.6667    

 TOP ELEVATION OF LAYER 1 =   100.000    

   MODEL LAYER BOTTOM EL. =  -10.0000     FOR LAYER   1

   MODEL LAYER BOTTOM EL. =  -20.0000     FOR LAYER   2


 STRESS PERIOD     LENGTH       TIME STEPS     MULTIPLIER FOR DELT    SS FLAG
 ----------------------------------------------------------------------------
        1         1.000000          1                    1.000         SS

 STEADY-STATE SIMULATION



 
 #SEAWATER-LGR Sample Problem, BAS6 child file                                   
 #December, 2007                                                                 
 THE FREE FORMAT OPTION HAS BEEN SELECTED



                     BOUNDARY ARRAY FOR LAYER   1
 READING ON UNIT   22 WITH FORMAT: (20I4)              



                     BOUNDARY ARRAY FOR LAYER   2
 READING ON UNIT   22 WITH FORMAT: (20I4)              

 AQUIFER HEAD WILL BE SET TO  0.0000     AT ALL NO-FLOW NODES (IBOUND=0).



                       INITIAL HEAD FOR LAYER   1
 READING ON UNIT   22 WITH FORMAT: (10F13.0)           



                       INITIAL HEAD FOR LAYER   2
 READING ON UNIT   22 WITH FORMAT: (10F13.0)           

 DEFAULT OUTPUT CONTROL
 THE FOLLOWING OUTPUT COMES AT THE END OF EACH STRESS PERIOD:
 TOTAL VOLUMETRIC BUDGET
           HEAD

 BCF -- BLOCK-CENTERED FLOW PACKAGE, VERSION 7, 5/2/2005
         INPUT READ FROM UNIT 23
 STEADY-STATE SIMULATION
 HEAD AT CELLS THAT CONVERT TO DRY=  0.10000E+11
 WETTING CAPABILITY IS NOT ACTIVE
      LAYER  LAYER-TYPE CODE     INTERBLOCK T
      --------------------------------------------
         1            1         10 -- ARITHMETIC  
         2            0          0 -- HARMONIC    

 COLUMN TO ROW ANISOTROPY =   1.00000    

    HYD. COND. ALONG ROWS =   5.00000     FOR LAYER   1

 VERT HYD COND /THICKNESS =  5.000000E-02 FOR LAYER   1

     TRANSMIS. ALONG ROWS =   800.000     FOR LAYER   2

 RCH -- RECHARGE PACKAGE, VERSION 7, 5/2/2005 INPUT READ FROM UNIT   25
 #SEAWATER-LGR Sample Problem, RECH Child file
 #December, 2007
     1 Named Parameters     
 OPTION 1 -- RECHARGE TO TOP LAYER


     1 Recharge parameters

 PARAMETER NAME:REC-SP2      TYPE:RCH    CLUSTERS:   1
 Parameter value from package file is:   2.00000E-03
                MULTIPLIER ARRAY: NONE    ZONE ARRAY: ALL
1
                            STRESS PERIOD NO.    1, LENGTH =   1.000000    
                            -----------------------------------------------

                              NUMBER OF TIME STEPS =     1

                               MULTIPLIER FOR DELT =     1.000

                            INITIAL TIME STEP SIZE =   1.000000    



 RECH array defined by the following parameters:
 Parameter:  REC-SP2

                 RECHARGE =  2.000000E-03
 
 SOLVING FOR HEAD 
1
              HEAD IN LAYER   1 AT END OF TIME STEP   1 IN STRESS PERIOD    1
  ---------------------------------------------------------------------------

            1           2           3           4           5           6           7           8           9          10
           11          12          13          14          15          16          17          18          19          20
           21          22          23          24          25          26          27          28          29          30
           31          32          33          34          35          36          37          38          39          40
 ........................................................................................................................
   1    19.01       18.63       18.20       17.73       17.33       16.88       16.38       15.97       15.51       15.00    
        14.61       14.16       13.67       13.33       12.94       12.49       12.20       11.85       11.46       11.18    
        10.86       10.48       10.20       9.870       9.483       9.186       8.833       8.422       8.097       7.716    
        7.275       6.920       6.506       6.031       5.644       5.197       4.687       4.267       3.785       3.244    
   2    19.07       18.64       18.21       17.77       17.34       16.89       16.42       15.97       15.51       15.04    
        14.60       14.15       13.70       13.29       12.89       12.50       12.14       11.80       11.45       11.13    
        10.81       10.48       10.16       9.834       9.492       9.156       8.805       8.437       8.073       7.692    
        7.293       6.898       6.484       6.052       5.623       5.176       4.710       4.248       3.771       3.296    
   3    19.09       18.66       18.23       17.79       17.35       16.90       16.44       15.98       15.52       15.05    
        14.59       14.13       13.68       13.25       12.84       12.44       12.08       11.73       11.40       11.08    
        10.77       10.45       10.13       9.810       9.478       9.140       8.792       8.432       8.064       7.684    
        7.293       6.892       6.479       6.054       5.619       5.172       4.713       4.244       3.767       3.295    
   4    19.06       18.66       18.24       17.81       17.37       16.91       16.45       15.99       15.52       15.04    
        14.57       14.09       13.63       13.18       12.75       12.35       11.99       11.65       11.33       11.02    
        10.71       10.41       10.10       9.785       9.460       9.125       8.780       8.424       8.057       7.679    
        7.290       6.889       6.477       6.053       5.618       5.171       4.713       4.242       3.757       3.235    
   5    19.12       18.69       18.26       17.82       17.38       16.92       16.46       15.99       15.51       15.02    
        14.53       14.04       13.55       13.08       12.63       12.22       11.85       11.53       11.23       10.94    
        10.65       10.36       10.07       9.759       9.440       9.111       8.770       8.416       8.052       7.675    
        7.287       6.887       6.475       6.052       5.617       5.171       4.713       4.244       3.766       3.294    
   6    19.13       18.70       18.27       17.84       17.39       16.93       16.46       15.99       15.50       14.99    
        14.48       13.97       13.45       12.93       12.45       12.02       11.67       11.38       11.11       10.85    
        10.59       10.31       10.03       9.733       9.422       9.097       8.760       8.410       8.047       7.672    
        7.285       6.886       6.474       6.052       5.617       5.171       4.713       4.244       3.766       3.294    
   7    19.10       18.71       18.29       17.85       17.40       16.94       16.47       15.98       15.48       14.97    
        14.43       13.88       13.32       12.75       12.20       11.73       11.42       11.18       10.97       10.75    
        10.52       10.27       9.998       9.710       9.406       9.087       8.753       8.405       8.044       7.670    
        7.284       6.885       6.474       6.052       5.617       5.171       4.713       4.243       3.757       3.235    
   8    19.16       18.73       18.30       17.86       17.41       16.95       16.48       15.98       15.47       14.94    
        14.39       13.80       13.18       12.52       11.83       11.21       11.04       10.94       10.82       10.66    
        10.46       10.23       9.972       9.694       9.395       9.080       8.749       8.403       8.043       7.670    
        7.284       6.886       6.475       6.053       5.618       5.172       4.714       4.245       3.767       3.295    
   9    19.18       18.75       18.32       17.88       17.43       16.97       16.49       15.99       15.48       14.93    
        14.36       13.74       13.06       12.26       11.23       9.899       10.43       10.67       10.69       10.59    
        10.42       10.21       9.959       9.686       9.392       9.079       8.749       8.404       8.044       7.672    
        7.286       6.888       6.477       6.054       5.620       5.174       4.716       4.246       3.768       3.296    
  10    19.15       18.76       18.33       17.90       17.45       16.98       16.50       16.01       15.49       14.95    
        14.37       13.73       13.01       12.06       10.34       4.084       9.507       10.46       10.63       10.57    
        10.41       10.20       9.961       9.690       9.396       9.083       8.753       8.408       8.049       7.675    
        7.289       6.891       6.480       6.057       5.622       5.176       4.717       4.246       3.760       3.237    
  11    19.21       18.78       18.35       17.92       17.47       17.01       16.53       16.04       15.52       14.98    
        14.41       13.79       13.11       12.30       11.27       9.941       10.47       10.70       10.72       10.62    
        10.45       10.23       9.981       9.706       9.410       9.095       8.763       8.416       8.055       7.681    
        7.294       6.895       6.484       6.060       5.625       5.178       4.719       4.249       3.770       3.298    
  12    19.23       18.80       18.38       17.94       17.49       17.03       16.56       16.07       15.56       15.03    
        14.48       13.89       13.27       12.61       11.92       11.29       11.11       11.01       10.89       10.72    
        10.51       10.28       10.02       9.734       9.431       9.112       8.777       8.428       8.065       7.689    
        7.301       6.901       6.488       6.064       5.628       5.181       4.722       4.251       3.772       3.299    
  13    19.20       18.81       18.40       17.96       17.52       17.07       16.60       16.12       15.62       15.10    
        14.57       14.02       13.46       12.88       12.33       11.85       11.53       11.29       11.07       10.84    
        10.60       10.34       10.06       9.770       9.460       9.134       8.795       8.442       8.077       7.699    
        7.309       6.907       6.494       6.069       5.632       5.184       4.724       4.252       3.765       3.241    
  14    19.26       18.84       18.42       17.99       17.55       17.10       16.64       16.16       15.68       15.18    
        14.67       14.15       13.63       13.11       12.62       12.19       11.83       11.52       11.24       10.97    
        10.70       10.41       10.12       9.812       9.492       9.160       8.816       8.459       8.090       7.710    
        7.318       6.915       6.500       6.074       5.636       5.187       4.727       4.256       3.776       3.302    
  15    19.28       18.86       18.44       18.01       17.58       17.13       16.68       16.21       15.74       15.26    
        14.77       14.27       13.78       13.30       12.84       12.42       12.05       11.71       11.39       11.09    
        10.79       10.49       10.18       9.856       9.527       9.188       8.838       8.477       8.104       7.721    
        7.327       6.922       6.506       6.079       5.641       5.191       4.730       4.258       3.778       3.304    
  16    19.25       18.87       18.46       18.04       17.61       17.17       16.72       16.26       15.80       15.33    
        14.85       14.38       13.91       13.45       13.01       12.60       12.22       11.86       11.52       11.20    
        10.88       10.55       10.23       9.900       9.562       9.216       8.860       8.494       8.119       7.733    
        7.337       6.930       6.513       6.084       5.645       5.195       4.733       4.259       3.771       3.246    
  17    19.31       18.90       18.48       18.06       17.63       17.20       16.76       16.31       15.85       15.39    
        14.93       14.47       14.02       13.58       13.15       12.74       12.35       11.98       11.63       11.29    
        10.95       10.62       10.28       9.941       9.595       9.242       8.881       8.512       8.133       7.745    
        7.346       6.938       6.519       6.089       5.649       5.198       4.736       4.263       3.781       3.307    
  18    19.33       18.91       18.50       18.08       17.66       17.23       16.79       16.35       15.90       15.45    
        15.00       14.55       14.11       13.67       13.25       12.84       12.45       12.08       11.72       11.36    
        11.01       10.67       10.32       9.977       9.624       9.266       8.901       8.527       8.146       7.755    
        7.355       6.945       6.525       6.094       5.653       5.201       4.739       4.265       3.783       3.308    
  19    19.29       18.92       18.52       18.10       17.68       17.25       16.82       16.38       15.94       15.49    
        15.05       14.61       14.17       13.75       13.33       12.92       12.53       12.15       11.78       11.42    
        11.07       10.71       10.36       10.01       9.649       9.286       8.917       8.541       8.157       7.764    
        7.362       6.951       6.530       6.098       5.656       5.204       4.741       4.266       3.776       3.250    
  20    19.35       18.94       18.53       18.12       17.70       17.27       16.84       16.41       15.97       15.53    
        15.09       14.65       14.22       13.80       13.38       12.98       12.59       12.20       11.83       11.46    
        11.10       10.74       10.39       10.03       9.668       9.302       8.930       8.552       8.166       7.771    
        7.368       6.956       6.534       6.102       5.659       5.206       4.743       4.269       3.786       3.310    
  21    19.36       18.95       18.54       18.13       17.71       17.29       16.86       16.42       15.99       15.55    
        15.12       14.68       14.25       13.83       13.42       13.01       12.62       12.24       11.86       11.49    
        11.13       10.77       10.41       10.04       9.681       9.313       8.939       8.559       8.172       7.777    
        7.373       6.960       6.537       6.104       5.661       5.208       4.744       4.270       3.787       3.311    
  22    19.32       18.95       18.55       18.14       17.72       17.30       16.87       16.44       16.00       15.56    
        15.13       14.70       14.27       13.85       13.43       13.03       12.63       12.25       11.87       11.50    
        11.14       10.78       10.41       10.05       9.687       9.318       8.944       8.563       8.176       7.780    
        7.375       6.962       6.539       6.106       5.663       5.209       4.745       4.269       3.780       3.253    
  23    19.37       18.96       18.56       18.14       17.73       17.30       16.87       16.44       16.00       15.56    
        15.13       14.69       14.26       13.84       13.43       13.02       12.63       12.24       11.87       11.50    
        11.14       10.77       10.41       10.05       9.686       9.319       8.945       8.563       8.177       7.781    
        7.375       6.963       6.540       6.106       5.664       5.210       4.745       4.272       3.789       3.313    
  24    19.38       18.97       18.56       18.14       17.73       17.30       16.86       16.44       16.00       15.55    
        15.12       14.68       14.24       13.82       13.40       12.99       12.60       12.22       11.84       11.48    
        11.12       10.76       10.41       10.05       9.676       9.317       8.944       8.557       8.178       7.783    
        7.371       6.965       6.543       6.102       5.667       5.213       4.742       4.275       3.793       3.315    
  25    19.34       18.98       18.57       18.12       17.74       17.31       16.83       16.44       16.00       15.50    
        15.11       14.67       14.17       13.80       13.38       12.90       12.58       12.20       11.77       11.47    
        11.11       10.71       10.41       10.05       9.640       9.325       8.955       8.528       8.191       7.798    
        7.345       6.982       6.560       6.078       5.685       5.233       4.717       4.293       3.807       3.262    
1
              HEAD IN LAYER   2 AT END OF TIME STEP   1 IN STRESS PERIOD    1
  ---------------------------------------------------------------------------

            1           2           3           4           5           6           7           8           9          10
           11          12          13          14          15          16          17          18          19          20
           21          22          23          24          25          26          27          28          29          30
           31          32          33          34          35          36          37          38          39          40
 ........................................................................................................................
   1    18.99       18.58       18.15       17.71       17.28       16.83       16.36       15.92       15.46       14.98    
        14.55       14.11       13.65       13.27       12.88       12.47       12.14       11.80       11.44       11.13    
        10.80       10.46       10.14       9.813       9.465       9.127       8.774       8.404       8.038       7.655    
        7.256       6.858       6.444       6.012       5.581       5.133       4.667       4.202       3.718       3.215    
   2    19.02       18.60       18.17       17.74       17.30       16.85       16.39       15.93       15.47       15.01    
        14.56       14.11       13.66       13.25       12.85       12.46       12.10       11.76       11.41       11.09    
        10.77       10.44       10.12       9.793       9.456       9.115       8.763       8.401       8.031       7.650    
        7.256       6.855       6.441       6.014       5.579       5.132       4.671       4.202       3.722       3.232    
   3    19.03       18.62       18.19       17.75       17.31       16.86       16.41       15.94       15.48       15.01    
        14.55       14.09       13.64       13.21       12.80       12.41       12.04       11.69       11.36       11.04    
        10.73       10.41       10.09       9.771       9.440       9.101       8.753       8.394       8.025       7.645    
        7.254       6.852       6.439       6.014       5.578       5.131       4.672       4.202       3.721       3.232    
   4    19.04       18.63       18.20       17.77       17.33       16.88       16.42       15.95       15.48       15.00    
        14.53       14.05       13.59       13.14       12.71       12.31       11.95       11.61       11.29       10.98    
        10.68       10.37       10.06       9.747       9.422       9.087       8.742       8.386       8.019       7.640    
        7.250       6.849       6.437       6.013       5.577       5.130       4.671       4.201       3.717       3.214    
   5    19.07       18.65       18.22       17.79       17.34       16.89       16.42       15.95       15.47       14.98    
        14.49       14.00       13.51       13.04       12.59       12.18       11.82       11.49       11.19       10.90    
        10.62       10.33       10.03       9.721       9.403       9.073       8.731       8.378       8.013       7.636    
        7.248       6.847       6.435       6.012       5.577       5.130       4.672       4.202       3.721       3.232    
   6    19.08       18.66       18.24       17.80       17.35       16.89       16.43       15.95       15.46       14.95    
        14.44       13.93       13.41       12.90       12.42       11.99       11.64       11.34       11.07       10.81    
        10.55       10.28       9.993       9.695       9.384       9.059       8.722       8.371       8.008       7.633    
        7.245       6.846       6.435       6.012       5.577       5.130       4.672       4.202       3.721       3.232    
   7    19.08       18.67       18.25       17.81       17.36       16.90       16.43       15.94       15.44       14.93    
        14.39       13.84       13.28       12.72       12.18       11.72       11.40       11.15       10.94       10.72    
        10.48       10.23       9.960       9.673       9.368       9.049       8.715       8.366       8.005       7.631    
        7.244       6.846       6.435       6.012       5.577       5.131       4.672       4.202       3.718       3.215    
   8    19.11       18.69       18.26       17.83       17.38       16.91       16.44       15.94       15.43       14.90    
        14.35       13.76       13.15       12.50       11.85       11.31       11.07       10.93       10.79       10.62    
        10.42       10.19       9.935       9.656       9.358       9.042       8.711       8.364       8.004       7.631    
        7.245       6.846       6.435       6.013       5.578       5.131       4.673       4.203       3.722       3.233    
   9    19.13       18.71       18.28       17.84       17.39       16.93       16.45       15.95       15.44       14.89    
        14.32       13.71       13.03       12.28       11.43       10.62       10.64       10.70       10.67       10.55    
        10.38       10.17       9.922       9.649       9.354       9.041       8.711       8.365       8.006       7.633    
        7.247       6.848       6.437       6.014       5.580       5.133       4.674       4.204       3.723       3.233    
  10    19.13       18.72       18.30       17.86       17.41       16.95       16.47       15.97       15.45       14.90    
        14.32       13.70       12.99       12.15       11.04       9.294       10.24       10.57       10.62       10.54    
        10.38       10.17       9.924       9.653       9.359       9.046       8.715       8.370       8.010       7.636    
        7.250       6.851       6.440       6.017       5.582       5.135       4.676       4.205       3.720       3.217    
  11    19.16       18.74       18.32       17.88       17.43       16.97       16.49       16.00       15.48       14.94    
        14.37       13.75       13.08       12.32       11.48       10.66       10.68       10.73       10.70       10.58    
        10.41       10.19       9.944       9.669       9.372       9.057       8.725       8.378       8.017       7.642    
        7.255       6.856       6.444       6.020       5.585       5.137       4.678       4.208       3.726       3.236    
  12    19.18       18.76       18.34       17.90       17.46       17.00       16.52       16.03       15.52       14.99    
        14.44       13.85       13.24       12.59       11.94       11.39       11.14       11.00       10.86       10.68    
        10.48       10.24       9.980       9.696       9.394       9.074       8.739       8.389       8.026       7.650    
        7.262       6.861       6.449       6.024       5.588       5.140       4.681       4.209       3.727       3.237    
  13    19.18       18.78       18.36       17.93       17.48       17.03       16.56       16.08       15.58       15.06    
        14.53       13.98       13.42       12.85       12.30       11.84       11.51       11.26       11.03       10.81    
        10.56       10.30       10.03       9.733       9.422       9.096       8.757       8.404       8.038       7.660    
        7.270       6.868       6.454       6.029       5.592       5.143       4.683       4.211       3.725       3.221    
  14    19.21       18.80       18.38       17.95       17.51       17.06       16.60       16.12       15.64       15.14    
        14.63       14.11       13.59       13.07       12.59       12.15       11.79       11.48       11.20       10.93    
        10.66       10.38       10.08       9.774       9.455       9.122       8.777       8.420       8.051       7.671    
        7.279       6.875       6.460       6.034       5.596       5.147       4.686       4.214       3.731       3.240    
  15    19.23       18.82       18.40       17.98       17.54       17.10       16.64       16.17       15.70       15.22    
        14.73       14.23       13.74       13.26       12.80       12.38       12.01       11.67       11.36       11.05    
        10.75       10.45       10.14       9.819       9.489       9.150       8.799       8.438       8.066       7.682    
        7.288       6.883       6.466       6.039       5.600       5.150       4.689       4.216       3.733       3.241    
  16    19.23       18.83       18.42       18.00       17.57       17.13       16.68       16.22       15.76       15.29    
        14.81       14.34       13.87       13.41       12.98       12.56       12.18       11.82       11.48       11.16    
        10.84       10.52       10.19       9.862       9.524       9.177       8.821       8.456       8.080       7.694    
        7.298       6.891       6.473       6.044       5.605       5.154       4.692       4.218       3.731       3.226    
  17    19.26       18.86       18.44       18.02       17.60       17.16       16.72       16.27       15.81       15.35    
        14.89       14.43       13.98       13.54       13.11       12.70       12.31       11.94       11.59       11.25    
        10.91       10.58       10.24       9.903       9.557       9.204       8.843       8.473       8.094       7.705    
        7.307       6.898       6.479       6.049       5.609       5.157       4.695       4.221       3.737       3.244    
  18    19.28       18.87       18.46       18.05       17.62       17.19       16.75       16.31       15.86       15.41    
        14.96       14.51       14.07       13.63       13.21       12.81       12.42       12.04       11.68       11.32    
        10.98       10.63       10.29       9.939       9.586       9.228       8.862       8.489       8.107       7.716    
        7.315       6.905       6.485       6.054       5.613       5.160       4.697       4.223       3.739       3.246    
  19    19.28       18.88       18.48       18.07       17.64       17.21       16.78       16.34       15.90       15.46    
        15.01       14.57       14.14       13.71       13.29       12.89       12.49       12.11       11.74       11.38    
        11.03       10.67       10.32       9.968       9.611       9.248       8.879       8.502       8.118       7.725    
        7.323       6.911       6.490       6.058       5.616       5.163       4.699       4.224       3.736       3.230    
  20    19.30       18.90       18.49       18.08       17.66       17.24       16.80       16.37       15.93       15.49    
        15.05       14.62       14.18       13.76       13.35       12.94       12.55       12.17       11.79       11.43    
        11.06       10.71       10.35       9.991       9.629       9.263       8.891       8.513       8.127       7.732    
        7.329       6.916       6.494       6.061       5.619       5.166       4.702       4.227       3.742       3.248    
  21    19.31       18.91       18.51       18.09       17.67       17.25       16.82       16.39       15.95       15.51    
        15.08       14.64       14.22       13.79       13.38       12.98       12.58       12.20       11.82       11.45    
        11.09       10.73       10.37       10.01       9.642       9.274       8.900       8.520       8.133       7.737    
        7.333       6.920       6.497       6.064       5.621       5.167       4.703       4.228       3.743       3.249    
  22    19.31       18.92       18.51       18.10       17.68       17.26       16.83       16.40       15.96       15.53    
        15.09       14.66       14.23       13.81       13.39       12.99       12.59       12.21       11.83       11.46    
        11.10       10.74       10.38       10.01       9.649       9.280       8.905       8.524       8.136       7.740    
        7.336       6.922       6.499       6.065       5.622       5.168       4.704       4.228       3.740       3.233    
  23    19.32       18.92       18.52       18.11       17.69       17.26       16.83       16.40       15.96       15.53    
        15.09       14.66       14.22       13.80       13.39       12.98       12.59       12.20       11.83       11.46    
        11.10       10.73       10.37       10.01       9.648       9.280       8.906       8.525       8.137       7.741    
        7.336       6.923       6.499       6.066       5.623       5.169       4.704       4.229       3.744       3.250    
  24    19.33       18.93       18.52       18.11       17.69       17.26       16.83       16.40       15.96       15.51    
        15.08       14.64       14.20       13.78       13.36       12.95       12.56       12.18       11.80       11.44    
        11.08       10.72       10.36       10.01       9.640       9.275       8.902       8.520       8.135       7.740    
        7.334       6.922       6.499       6.064       5.623       5.169       4.703       4.229       3.744       3.251    
  25    19.32       18.92       18.52       18.10       17.69       17.26       16.81       16.39       15.94       15.48    
        15.06       14.61       14.15       13.74       13.32       12.88       12.52       12.14       11.75       11.41    
        11.06       10.69       10.35       9.993       9.621       9.267       8.896       8.509       8.132       7.738    
        7.327       6.921       6.499       6.059       5.623       5.169       4.698       4.228       3.740       3.233    
1
  VOLUMETRIC BUDGET FOR ENTIRE MODEL AT END OF TIME STEP  1 IN STRESS PERIOD   1
  ------------------------------------------------------------------------------

     CUMULATIVE VOLUMES      L**3       RATES FOR THIS TIME STEP      L**3/T
     ------------------                 ------------------------

           IN:                                      IN:
           ---                                      ---
             STORAGE =           0.0000               STORAGE =           0.0000
       CONSTANT HEAD =        9233.5233         CONSTANT HEAD =        9233.5233
            RECHARGE =        7768.8897              RECHARGE =        7768.8897
        MANAGED FLOW =           0.0000          MANAGED FLOW =           0.0000

            TOTAL IN =       17002.4130              TOTAL IN =       17002.4130

          OUT:                                     OUT:
          ----                                     ----
             STORAGE =           0.0000               STORAGE =           0.0000
       CONSTANT HEAD =       10697.5966         CONSTANT HEAD =       10697.5966
            RECHARGE =           0.0000              RECHARGE =           0.0000
        MANAGED FLOW =        6304.8164          MANAGED FLOW =        6304.8164

           TOTAL OUT =       17002.4130             TOTAL OUT =       17002.4130

            IN - OUT =      -3.7006E-08              IN - OUT =      -3.7006E-08

 PERCENT DISCREPANCY =           0.00     PERCENT DISCREPANCY =           0.00






          TIME SUMMARY AT END OF TIME STEP   1 IN STRESS PERIOD    1
                    SECONDS     MINUTES      HOURS       DAYS        YEARS
                    -----------------------------------------------------------
   TIME STEP LENGTH  86400.      1440.0      24.000      1.0000     2.73785E-03
 STRESS PERIOD TIME  86400.      1440.0      24.000      1.0000     2.73785E-03
         TOTAL TIME  86400.      1440.0      24.000      1.0000     2.73785E-03
1
1
  FLUX ACROSS PARENT-CHILD INTERFACE AT TIME STEP  1 IN STRESS PERIOD    1
  ------------------------------------------------------------------------

     CUMULATIVE VOLUMES      L**3       RATES FOR THIS TIME STEP      L**3/T
     ------------------                 ------------------------

   TOTAL IN TO CHILD =        9733.4760     TOTAL IN TO CHILD =        9733.4760

 TOTAL OUT TO PARENT =       11197.5492   TOTAL OUT TO PARENT =       11197.5492


 Run end date and time (yyyy/mm/dd hh:mm:ss): 2011/03/09  8:08:16
 Elapsed run time: 33.518 Seconds

