                                  MODFLOW-LGR2     
      U.S. GEOLOGICAL SURVEY MODULAR FINITE-DIFFERENCE GROUNDWATER FLOW MODEL
                 VERSION GWM-2005 1.5.1 081214,FROM MF-LGR V2.0


     FINAL FLOW PROCESS SIMULATION FOR GWM                                                                                                                                                                   


 REWOUND ..\data\SEAWATER-LGRSTA\sealgrsta_chd.dis
 FILE TYPE:DIS   UNIT   21

 REWOUND ..\data\SEAWATER-LGRSTA\sealgrsta_chd.ba6
 FILE TYPE:BAS6   UNIT   22

 REWOUND ..\data\SEAWATER-LGRSTA\sealgrsta.bc6
 FILE TYPE:BCF6   UNIT   23

 REWOUND ..\data\SEAWATER-LGRSTA\sealgrsta_chd.rch
 FILE TYPE:RCH   UNIT   25

 REWOUND ..\data\SEAWATER-LGRSTA\sealgrsta.gmg
 FILE TYPE:GMG   UNIT   26

 REWOUND ..\data\SEAWATER-LGRSTA\sealgrsta_chd.gwm
 FILE TYPE:GWM   UNIT   28

 BAS -- BASIC PACKAGE, VERSION 7, 5/2/2005 INPUT READ FROM UNIT   22

 DISCRETIZATION INPUT DATA READ FROM UNIT   21
 #SEAWATER-LGR Sample Problem, DIS-Package child file
 #December, 2007
    2 LAYERS        21 ROWS        39 COLUMNS
    1 STRESS PERIOD(S) IN SIMULATION
 MODEL TIME UNIT IS DAYS
 MODEL LENGTH UNIT IS UNDEFINED
  Confining bed flag for each layer:
   0   0

                     DELR =   66.6667    

                     DELC =   66.6667    

 TOP ELEVATION OF LAYER 1 =   100.000    

   MODEL LAYER BOTTOM EL. =  -10.0000     FOR LAYER   1

   MODEL LAYER BOTTOM EL. =  -20.0000     FOR LAYER   2


 STRESS PERIOD     LENGTH       TIME STEPS     MULTIPLIER FOR DELT    SS FLAG
 ----------------------------------------------------------------------------
        1         1.000000          1                    1.000         SS

 STEADY-STATE SIMULATION



 
 #SEAWATER-LGR Sample Problem, BAS6 child file                                   
 #December, 2007                                                                 
 THE FREE FORMAT OPTION HAS BEEN SELECTED



                     BOUNDARY ARRAY FOR LAYER   1
 READING ON UNIT   22 WITH FORMAT: (20I4)              



                     BOUNDARY ARRAY FOR LAYER   2
 READING ON UNIT   22 WITH FORMAT: (20I4)              

 AQUIFER HEAD WILL BE SET TO  0.0000     AT ALL NO-FLOW NODES (IBOUND=0).

             INITIAL HEAD =   10.0000     FOR LAYER   1

             INITIAL HEAD =   10.0000     FOR LAYER   2

 DEFAULT OUTPUT CONTROL
 THE FOLLOWING OUTPUT COMES AT THE END OF EACH STRESS PERIOD:
 TOTAL VOLUMETRIC BUDGET
           HEAD

 BCF -- BLOCK-CENTERED FLOW PACKAGE, VERSION 7, 5/2/2005
         INPUT READ FROM UNIT 23
 STEADY-STATE SIMULATION
 HEAD AT CELLS THAT CONVERT TO DRY=  0.10000E+11
 WETTING CAPABILITY IS NOT ACTIVE
      LAYER  LAYER-TYPE CODE     INTERBLOCK T
      --------------------------------------------
         1            1         10 -- ARITHMETIC  
         2            0          0 -- HARMONIC    

 COLUMN TO ROW ANISOTROPY =   1.00000    

    HYD. COND. ALONG ROWS =   5.00000     FOR LAYER   1

 VERT HYD COND /THICKNESS =  5.000000E-02 FOR LAYER   1

     TRANSMIS. ALONG ROWS =   800.000     FOR LAYER   2

 RCH -- RECHARGE PACKAGE, VERSION 7, 5/2/2005 INPUT READ FROM UNIT   25
 #SEAWATER-LGR Sample Problem, RECH Child file
 #December, 2007
     1 Named Parameters     
 OPTION 1 -- RECHARGE TO TOP LAYER


     1 Recharge parameters

 PARAMETER NAME:REC-SP2      TYPE:RCH    CLUSTERS:   1
 Parameter value from package file is:   2.00000E-03
                MULTIPLIER ARRAY: NONE    ZONE ARRAY: ALL
1
                            STRESS PERIOD NO.    1, LENGTH =   1.000000    
                            -----------------------------------------------

                              NUMBER OF TIME STEPS =     1

                               MULTIPLIER FOR DELT =     1.000

                            INITIAL TIME STEP SIZE =   1.000000    



 RECH array defined by the following parameters:
 Parameter:  REC-SP2

                 RECHARGE =  2.000000E-03

Flows at Managed Wells for Stress Period    1

 Well no.  Layer   Row   Col   Stress Rate
 ----------------------------------------------------
        1      1     8    14   -2955.080484354203    
        2      2     8    14   -2955.080484354203    
        3      1    17     5    0.000000000000000    
        4      2    17     5    0.000000000000000    
 ----------------------------------------------------
                      Total:   -5910.160968708406    
 
 SOLVING FOR HEAD 
1
              HEAD IN LAYER   1 AT END OF TIME STEP   1 IN STRESS PERIOD    1
  ---------------------------------------------------------------------------

            1           2           3           4           5           6           7           8           9          10
           11          12          13          14          15          16          17          18          19          20
           21          22          23          24          25          26          27          28          29          30
           31          32          33          34          35          36          37          38          39
 ........................................................................................................................
   1    18.23       17.80       17.36       16.91       16.46       16.00       15.54       15.07       14.61       14.15    
        13.70       13.28       12.86       12.47       12.11       11.76       11.43       11.11       10.79       10.48    
        10.16       9.832       9.499       9.158       8.807       8.447       8.075       7.693       7.301       6.897    
        6.482       6.056       5.619       5.170       4.709       4.238       3.754       3.259       2.755    
   2    18.25       17.82       17.38       16.93       16.47       16.01       15.54       15.07       14.60       14.13    
        13.66       13.22       12.79       12.40       12.03       11.69       11.37       11.06       10.75       10.44    
        10.13       9.812       9.484       9.146       8.799       8.440       8.071       7.690       7.298       6.895    
        6.481       6.055       5.617       5.169       4.708       4.236       3.753       3.258       2.754    
   3    18.27       17.84       17.39       16.94       16.48       16.01       15.54       15.06       14.57       14.08    
        13.60       13.13       12.69       12.28       11.91       11.59       11.28       10.99       10.70       10.40    
        10.10       9.790       9.468       9.135       8.791       8.435       8.067       7.687       7.297       6.894    
        6.480       6.055       5.617       5.169       4.708       4.237       3.753       3.258       2.754    
   4    18.29       17.85       17.41       16.96       16.49       16.02       15.53       15.04       14.53       14.02    
        13.51       13.01       12.53       12.10       11.75       11.45       11.18       10.91       10.64       10.36    
        10.07       9.769       9.454       9.125       8.784       8.430       8.064       7.686       7.296       6.894    
        6.480       6.055       5.618       5.169       4.709       4.237       3.753       3.259       2.754    
   5    18.30       17.87       17.42       16.97       16.50       16.02       15.52       15.02       14.49       13.95    
        13.40       12.84       12.30       11.83       11.52       11.27       11.05       10.82       10.58       10.32    
        10.04       9.751       9.441       9.117       8.779       8.427       8.062       7.685       7.296       6.894    
        6.481       6.056       5.619       5.170       4.710       4.238       3.754       3.259       2.755    
   6    18.32       17.89       17.44       16.98       16.51       16.02       15.52       15.00       14.45       13.88    
        13.27       12.63       11.96       11.35       11.17       11.05       10.91       10.74       10.53       10.29    
        10.02       9.738       9.433       9.113       8.777       8.426       8.063       7.686       7.297       6.896    
        6.482       6.057       5.620       5.171       4.711       4.239       3.755       3.260       2.755    
   7    18.34       17.90       17.46       17.00       16.52       16.03       15.53       14.99       14.43       13.83    
        13.16       12.39       11.40       10.12       10.59       10.80       10.79       10.67       10.49       10.27    
        10.01       9.733       9.432       9.113       8.778       8.428       8.065       7.689       7.299       6.898    
        6.485       6.059       5.622       5.173       4.713       4.240       3.756       3.261       2.756    
   8    18.36       17.92       17.48       17.02       16.54       16.05       15.54       15.01       14.44       13.82    
        13.12       12.21       10.56       4.767       9.735       10.61       10.74       10.66       10.49       10.27    
        10.02       9.738       9.438       9.119       8.784       8.434       8.070       7.693       7.303       6.902    
        6.488       6.062       5.624       5.175       4.714       4.242       3.757       3.262       2.757    
   9    18.38       17.94       17.50       17.04       16.57       16.08       15.57       15.04       14.48       13.88    
        13.21       12.43       11.44       10.17       10.64       10.84       10.83       10.71       10.52       10.30    
        10.04       9.754       9.451       9.130       8.793       8.442       8.077       7.699       7.309       6.906    
        6.492       6.065       5.627       5.178       4.716       4.244       3.759       3.263       2.758    
  10    18.40       17.97       17.52       17.07       16.60       16.12       15.62       15.10       14.55       13.98    
        13.37       12.72       12.05       11.44       11.25       11.13       10.98       10.80       10.59       10.34    
        10.07       9.781       9.472       9.147       8.807       8.453       8.086       7.707       7.315       6.912    
        6.496       6.069       5.631       5.180       4.719       4.245       3.761       3.265       2.759    
  11    18.42       17.99       17.55       17.10       16.64       16.16       15.67       15.16       14.64       14.10    
        13.54       12.98       12.44       11.97       11.64       11.39       11.16       10.92       10.67       10.40    
        10.12       9.816       9.499       9.168       8.824       8.467       8.098       7.716       7.323       6.918    
        6.501       6.074       5.634       5.184       4.721       4.248       3.762       3.266       2.760    
  12    18.44       18.01       17.58       17.13       16.67       16.21       15.73       15.23       14.73       14.22    
        13.71       13.20       12.71       12.28       11.92       11.60       11.32       11.04       10.76       10.47    
        10.17       9.855       9.530       9.192       8.843       8.482       8.110       7.726       7.331       6.925    
        6.507       6.078       5.638       5.187       4.724       4.250       3.764       3.267       2.761    
  13    18.46       18.04       17.61       17.16       16.71       16.25       15.78       15.31       14.82       14.33    
        13.85       13.37       12.92       12.50       12.12       11.78       11.46       11.15       10.85       10.54    
        10.22       9.896       9.562       9.218       8.864       8.499       8.123       7.737       7.340       6.932    
        6.513       6.083       5.642       5.190       4.727       4.252       3.766       3.269       2.763    
  14    18.48       18.06       17.63       17.20       16.75       16.30       15.84       15.37       14.90       14.43    
        13.97       13.52       13.08       12.67       12.28       11.92       11.58       11.25       10.93       10.60    
        10.27       9.936       9.594       9.243       8.884       8.515       8.136       7.747       7.348       6.939    
        6.518       6.088       5.646       5.193       4.729       4.254       3.768       3.270       2.764    
  15    18.50       18.08       17.66       17.23       16.79       16.34       15.89       15.43       14.98       14.52    
        14.07       13.63       13.20       12.79       12.41       12.04       11.68       11.33       10.99       10.66    
        10.32       9.973       9.623       9.267       8.903       8.530       8.148       7.757       7.356       6.945    
        6.524       6.092       5.649       5.196       4.732       4.256       3.769       3.271       2.765    
  16    18.52       18.10       17.68       17.25       16.82       16.38       15.93       15.48       15.04       14.59    
        14.15       13.72       13.30       12.89       12.50       12.12       11.76       11.40       11.05       10.70    
        10.36       10.00       9.649       9.288       8.920       8.544       8.159       7.766       7.363       6.951    
        6.528       6.096       5.652       5.199       4.734       4.258       3.771       3.273       2.766    
  17    18.53       18.12       17.70       17.27       16.84       16.41       15.97       15.52       15.08       14.64    
        14.21       13.78       13.37       12.96       12.57       12.19       11.82       11.45       11.10       10.74    
        10.39       10.03       9.670       9.305       8.933       8.555       8.168       7.773       7.369       6.956    
        6.532       6.099       5.655       5.201       4.735       4.259       3.772       3.274       2.766    
  18    18.55       18.13       17.72       17.29       16.86       16.43       15.99       15.55       15.12       14.68    
        14.25       13.83       13.41       13.01       12.62       12.23       11.86       11.49       11.13       10.77    
        10.41       10.05       9.685       9.317       8.944       8.563       8.175       7.779       7.374       6.959    
        6.535       6.101       5.657       5.202       4.737       4.260       3.773       3.274       2.767    
  19    18.56       18.14       17.73       17.30       16.87       16.44       16.01       15.57       15.14       14.70    
        14.28       13.86       13.44       13.04       12.64       12.26       11.88       11.51       11.15       10.78    
        10.42       10.06       9.695       9.325       8.950       8.568       8.179       7.782       7.376       6.962    
        6.537       6.103       5.658       5.203       4.738       4.261       3.773       3.275       2.767    
  20    18.56       18.15       17.73       17.31       16.88       16.45       16.02       15.58       15.14       14.71    
        14.28       13.86       13.45       13.04       12.65       12.27       11.89       11.52       11.15       10.79    
        10.43       10.06       9.698       9.327       8.952       8.570       8.181       7.783       7.378       6.963    
        6.538       6.104       5.659       5.204       4.738       4.262       3.774       3.275       2.768    
  21    18.56       18.15       17.74       17.31       16.88       16.45       16.01       15.58       15.14       14.71    
        14.27       13.85       13.44       13.03       12.64       12.25       11.88       11.51       11.15       10.78    
        10.42       10.06       9.695       9.325       8.950       8.569       8.180       7.783       7.377       6.963    
        6.538       6.104       5.660       5.205       4.739       4.263       3.775       3.276       2.769    
1
              HEAD IN LAYER   2 AT END OF TIME STEP   1 IN STRESS PERIOD    1
  ---------------------------------------------------------------------------

            1           2           3           4           5           6           7           8           9          10
           11          12          13          14          15          16          17          18          19          20
           21          22          23          24          25          26          27          28          29          30
           31          32          33          34          35          36          37          38          39
 ........................................................................................................................
   1    18.19       17.76       17.32       16.87       16.42       15.96       15.50       15.03       14.57       14.11    
        13.66       13.24       12.82       12.43       12.07       11.72       11.39       11.07       10.75       10.44    
        10.12       9.793       9.461       9.119       8.768       8.408       8.035       7.653       7.261       6.856    
        6.441       6.015       5.576       5.127       4.668       4.194       3.710       3.215       2.706    
   2    18.21       17.78       17.34       16.89       16.43       15.97       15.50       15.03       14.56       14.09    
        13.63       13.18       12.75       12.36       11.99       11.65       11.33       11.02       10.71       10.41    
        10.09       9.774       9.446       9.108       8.760       8.402       8.032       7.651       7.259       6.855    
        6.440       6.014       5.577       5.128       4.667       4.195       3.711       3.215       2.707    
   3    18.23       17.80       17.36       16.90       16.44       15.98       15.50       15.02       14.53       14.04    
        13.56       13.09       12.65       12.24       11.88       11.55       11.24       10.95       10.66       10.37    
        10.06       9.753       9.431       9.097       8.752       8.396       8.028       7.648       7.257       6.854    
        6.440       6.014       5.577       5.128       4.667       4.195       3.711       3.215       2.707    
   4    18.25       17.81       17.37       16.92       16.45       15.98       15.49       15.00       14.49       13.98    
        13.47       12.97       12.49       12.07       11.72       11.41       11.14       10.87       10.60       10.32    
        10.03       9.732       9.416       9.087       8.746       8.391       8.025       7.647       7.256       6.854    
        6.440       6.015       5.577       5.128       4.668       4.196       3.711       3.216       2.708    
   5    18.26       17.83       17.39       16.93       16.46       15.98       15.49       14.98       14.45       13.91    
        13.36       12.80       12.28       11.82       11.49       11.24       11.01       10.79       10.54       10.28    
        10.01       9.713       9.404       9.079       8.741       8.389       8.024       7.646       7.256       6.855    
        6.441       6.016       5.578       5.129       4.669       4.196       3.712       3.216       2.708    
   6    18.28       17.85       17.40       16.94       16.47       15.98       15.48       14.96       14.41       13.84    
        13.24       12.61       11.98       11.44       11.19       11.04       10.88       10.70       10.49       10.25    
        9.986       9.700       9.396       9.075       8.738       8.388       8.024       7.647       7.258       6.856    
        6.442       6.017       5.580       5.131       4.670       4.197       3.713       3.217       2.709    
   7    18.30       17.86       17.42       16.96       16.49       16.00       15.49       14.95       14.39       13.79    
        13.13       12.40       11.59       10.80       10.80       10.83       10.77       10.64       10.46       10.23    
        9.976       9.695       9.394       9.075       8.740       8.390       8.026       7.650       7.260       6.858    
        6.445       6.019       5.582       5.132       4.671       4.199       3.714       3.218       2.710    
   8    18.32       17.88       17.44       16.98       16.50       16.01       15.50       14.97       14.40       13.78    
        13.10       12.29       11.22       9.568       10.43       10.70       10.73       10.63       10.45       10.23    
        9.980       9.701       9.400       9.081       8.745       8.395       8.031       7.654       7.264       6.862    
        6.448       6.022       5.584       5.134       4.673       4.200       3.716       3.219       2.710    
   9    18.34       17.90       17.46       17.00       16.53       16.04       15.53       15.00       14.44       13.84    
        13.18       12.45       11.63       10.84       10.84       10.86       10.81       10.67       10.49       10.26    
        10.00       9.717       9.414       9.092       8.755       8.403       8.038       7.660       7.269       6.866    
        6.452       6.025       5.587       5.137       4.675       4.202       3.717       3.220       2.711    
  10    18.36       17.93       17.49       17.03       16.56       16.08       15.58       15.06       14.51       13.94    
        13.33       12.70       12.07       11.53       11.27       11.11       10.95       10.77       10.55       10.30    
        10.03       9.744       9.435       9.109       8.769       8.415       8.048       7.668       7.276       6.872    
        6.456       6.029       5.590       5.140       4.678       4.204       3.719       3.222       2.713    
  11    18.38       17.95       17.51       17.06       16.60       16.12       15.63       15.12       14.60       14.06    
        13.50       12.95       12.41       11.95       11.62       11.36       11.12       10.88       10.63       10.36    
        10.08       9.778       9.461       9.130       8.786       8.428       8.059       7.677       7.283       6.878    
        6.462       6.033       5.594       5.143       4.680       4.206       3.720       3.223       2.714    
  12    18.40       17.98       17.54       17.09       16.64       16.17       15.69       15.19       14.69       14.18    
        13.67       13.16       12.68       12.25       11.88       11.57       11.28       11.00       10.72       10.43    
        10.13       9.817       9.492       9.154       8.805       8.444       8.071       7.687       7.292       6.885    
        6.467       6.038       5.598       5.146       4.683       4.208       3.722       3.224       2.715    
  13    18.42       18.00       17.57       17.13       16.67       16.21       15.74       15.27       14.78       14.29    
        13.81       13.33       12.88       12.46       12.09       11.74       11.42       11.11       10.81       10.50    
        10.18       9.858       9.524       9.180       8.825       8.460       8.084       7.698       7.300       6.892    
        6.473       6.043       5.601       5.149       4.685       4.210       3.724       3.226       2.716    
  14    18.44       18.02       17.60       17.16       16.71       16.26       15.80       15.33       14.86       14.40    
        13.93       13.48       13.04       12.63       12.24       11.88       11.54       11.21       10.89       10.56    
        10.23       9.898       9.556       9.205       8.845       8.476       8.097       7.708       7.309       6.899    
        6.478       6.047       5.605       5.152       4.688       4.212       3.726       3.227       2.717    
  15    18.46       18.05       17.62       17.19       16.75       16.30       15.85       15.39       14.94       14.48    
        14.03       13.59       13.16       12.76       12.37       12.00       11.64       11.30       10.96       10.62    
        10.28       9.935       9.585       9.229       8.864       8.491       8.109       7.718       7.317       6.905    
        6.484       6.052       5.609       5.155       4.690       4.214       3.727       3.228       2.718    
  16    18.48       18.07       17.64       17.21       16.78       16.34       15.89       15.44       15.00       14.55    
        14.11       13.68       13.26       12.85       12.46       12.09       11.72       11.37       11.01       10.67    
        10.32       9.967       9.611       9.249       8.881       8.505       8.120       7.727       7.324       6.911    
        6.488       6.055       5.612       5.158       4.692       4.216       3.729       3.230       2.719    
  17    18.49       18.08       17.66       17.24       16.80       16.37       15.93       15.49       15.04       14.61    
        14.17       13.75       13.33       12.92       12.53       12.15       11.78       11.42       11.06       10.70    
        10.35       9.992       9.632       9.266       8.895       8.516       8.129       7.734       7.330       6.916    
        6.492       6.059       5.615       5.160       4.694       4.218       3.730       3.231       2.720    
  18    18.51       18.10       17.68       17.25       16.82       16.39       15.95       15.52       15.08       14.64    
        14.21       13.79       13.38       12.97       12.58       12.20       11.82       11.45       11.09       10.73    
        10.37       10.01       9.647       9.279       8.905       8.524       8.136       7.739       7.334       6.920    
        6.495       6.061       5.617       5.161       4.696       4.219       3.731       3.231       2.720    
  19    18.52       18.11       17.69       17.27       16.84       16.40       15.97       15.53       15.10       14.67    
        14.24       13.82       13.40       13.00       12.61       12.22       11.84       11.47       11.11       10.75    
        10.38       10.02       9.656       9.286       8.911       8.529       8.140       7.743       7.337       6.922    
        6.497       6.063       5.618       5.162       4.696       4.219       3.731       3.232       2.721    
  20    18.52       18.11       17.70       17.27       16.84       16.41       15.98       15.54       15.11       14.67    
        14.25       13.82       13.41       13.01       12.61       12.23       11.85       11.48       11.11       10.75    
        10.39       10.03       9.659       9.289       8.913       8.531       8.141       7.744       7.338       6.922    
        6.498       6.063       5.618       5.163       4.697       4.220       3.731       3.232       2.721    
  21    18.53       18.12       17.70       17.27       16.84       16.41       15.97       15.54       15.10       14.67    
        14.24       13.81       13.40       12.99       12.60       12.21       11.84       11.47       11.11       10.74    
        10.38       10.02       9.656       9.285       8.910       8.529       8.139       7.742       7.337       6.921    
        6.497       6.063       5.617       5.162       4.697       4.219       3.731       3.233       2.720    
1
  VOLUMETRIC BUDGET FOR ENTIRE MODEL AT END OF TIME STEP    1, STRESS PERIOD   1
  ------------------------------------------------------------------------------

     CUMULATIVE VOLUMES      L**3       RATES FOR THIS TIME STEP      L**3/T
     ------------------                 ------------------------

           IN:                                      IN:
           ---                                      ---
             STORAGE =           0.0000               STORAGE =           0.0000
       CONSTANT HEAD =           0.0000         CONSTANT HEAD =           0.0000
            RECHARGE =        7280.0007              RECHARGE =        7280.0007
       MANAGED WELLS =           0.0000         MANAGED WELLS =           0.0000
     GHOST-NODE HEAD =        8638.8355       GHOST-NODE HEAD =        8638.8355

            TOTAL IN =       15918.8362              TOTAL IN =       15918.8362

          OUT:                                     OUT:
          ----                                     ----
             STORAGE =           0.0000               STORAGE =           0.0000
       CONSTANT HEAD =           0.0000         CONSTANT HEAD =           0.0000
            RECHARGE =           0.0000              RECHARGE =           0.0000
       MANAGED WELLS =        5910.1610         MANAGED WELLS =        5910.1610
     GHOST-NODE HEAD =       10008.6753       GHOST-NODE HEAD =       10008.6753

           TOTAL OUT =       15918.8362             TOTAL OUT =       15918.8362

            IN - OUT =       2.0209E-08              IN - OUT =       2.0209E-08

 PERCENT DISCREPANCY =           0.00     PERCENT DISCREPANCY =           0.00






         TIME SUMMARY AT END OF TIME STEP    1 IN STRESS PERIOD    1
                    SECONDS     MINUTES      HOURS       DAYS        YEARS
                    -----------------------------------------------------------
   TIME STEP LENGTH  86400.      1440.0      24.000      1.0000     2.73785E-03
 STRESS PERIOD TIME  86400.      1440.0      24.000      1.0000     2.73785E-03
         TOTAL TIME  86400.      1440.0      24.000      1.0000     2.73785E-03
1
1
  FLUX ACROSS PARENT-CHILD INTERFACE AT TIME STEP  1 IN STRESS PERIOD    1
  ------------------------------------------------------------------------
 G-N FLUX        PARENT        CHILD         DIFFERENCE      % DIFFERENCE
  RATE IN:      8.6388E+03    8.6388E+03    -7.9082E-07        0.0000
 RATE OUT:      1.0009E+04    1.0009E+04    -7.9785E-07        0.0000

 Run end date and time (yyyy/mm/dd hh:mm:ss): 2014/08/12 13:01:27
 Elapsed run time: 16.532 Seconds

