                                  MODFLOW-LGR2     
      U.S. GEOLOGICAL SURVEY MODULAR FINITE-DIFFERENCE GROUNDWATER FLOW MODEL
                 VERSION GWM-2005 1.5.1 081214,FROM MF-LGR V2.0


     FINAL FLOW PROCESS SIMULATION FOR GWM                                                                                                                                                                   


 REWOUND ..\data\SEAWATER-LGRSTA\sealgrsta_par.dis
 FILE TYPE:DIS   UNIT   11

 REWOUND ..\data\SEAWATER-LGRSTA\sealgrsta_par.ba6
 FILE TYPE:BAS6   UNIT   12

 REWOUND ..\data\SEAWATER-LGRSTA\sealgrsta.bc6
 FILE TYPE:BCF6   UNIT   13

 REWOUND ..\data\SEAWATER-LGRSTA\sealgrsta_par.rch
 FILE TYPE:RCH   UNIT   15

 REWOUND ..\data\SEAWATER-LGRSTA\sealgrsta.gmg
 FILE TYPE:GMG   UNIT   16

 REWOUND ..\data\SEAWATER-LGRSTA\sealgrsta_par.zone
 FILE TYPE:ZONE   UNIT   17

 REWOUND ..\data\SEAWATER-LGRSTA\sealgrsta_par.gwm
 FILE TYPE:GWM   UNIT   18

 BAS -- BASIC PACKAGE, VERSION 7, 5/2/2005 INPUT READ FROM UNIT   12

 DISCRETIZATION INPUT DATA READ FROM UNIT   11
 #SEAWATER-LGR Sample Problem, DIS Parent file
 #December, 2007
    2 LAYERS        20 ROWS        30 COLUMNS
    1 STRESS PERIOD(S) IN SIMULATION
 MODEL TIME UNIT IS DAYS
 MODEL LENGTH UNIT IS UNDEFINED
  Confining bed flag for each layer:
   0   0

                     DELR =   200.000    

                     DELC =   200.000    

 TOP ELEVATION OF LAYER 1 =   100.000    

   MODEL LAYER BOTTOM EL. =  -10.0000     FOR LAYER   1

   MODEL LAYER BOTTOM EL. =  -20.0000     FOR LAYER   2


 STRESS PERIOD     LENGTH       TIME STEPS     MULTIPLIER FOR DELT    SS FLAG
 ----------------------------------------------------------------------------
        1         1.000000          1                    1.000         SS

 STEADY-STATE SIMULATION



 
 #SEAWATER-LGR Sample Problem, BAS6 Parent file                                  
 #December, 2007                                                                 
 THE FREE FORMAT OPTION HAS BEEN SELECTED



                     BOUNDARY ARRAY FOR LAYER   1
 READING ON UNIT   12 WITH FORMAT: (20I4)              



                     BOUNDARY ARRAY FOR LAYER   2
 READING ON UNIT   12 WITH FORMAT: (20I4)              

 AQUIFER HEAD WILL BE SET TO  0.0000     AT ALL NO-FLOW NODES (IBOUND=0).



                       INITIAL HEAD FOR LAYER   1
 READING ON UNIT   12 WITH FORMAT: (10F13.0)           



                       INITIAL HEAD FOR LAYER   2
 READING ON UNIT   12 WITH FORMAT: (10F13.0)           

 DEFAULT OUTPUT CONTROL
 THE FOLLOWING OUTPUT COMES AT THE END OF EACH STRESS PERIOD:
 TOTAL VOLUMETRIC BUDGET
           HEAD

 ZONE OPTION, INPUT READ FROM UNIT   17
 #SEAWATER-LGR Sample Problem, GWM Parent file
 #December, 2007
 #Zone for parent recharge
 #OVERLAP PERCENTAGES 3:1 RATIO ONTO CHILD GRID
     1 ZONE ARRAYS



             ZONE ARRAY: RCHZONE   
 READING ON UNIT   17 WITH FORMAT: (50I2)              

      1 2 3 4 5 6 7 8 9101112131415161718192021222324252627282930
 ................................................................
   1  1 1 1 1 1 1 1 1 1 1 1 1 1 1 1 1 1 1 1 1 1 1 1 1 1 1 1 1 1 1
   2  1 1 1 1 1 1 1 1 1 1 1 1 1 1 1 1 1 1 1 1 1 1 1 1 1 1 1 1 1 1
   3  1 1 1 1 1 1 1 1 1 1 1 1 1 1 1 1 1 1 1 1 1 1 1 1 1 1 1 1 1 1
   4  1 1 1 1 1 1 1 1 1 1 1 1 1 1 1 1 1 1 1 1 1 1 1 1 1 1 1 1 1 1
   5  1 1 1 1 1 1 1 1 1 1 1 1 1 1 1 1 1 1 1 1 1 1 1 1 1 1 1 1 1 1
   6  1 1 1 1 1 1 1 1 1 1 1 1 1 1 2 3 3 3 3 3 3 3 3 3 3 3 3 2 1 1
   7  1 1 1 1 1 1 1 1 1 1 1 1 1 1 3 0 0 0 0 0 0 0 0 0 0 0 0 3 1 1
   8  1 1 1 1 1 1 1 1 1 1 1 1 1 1 3 0 0 0 0 0 0 0 0 0 0 0 0 3 1 1
   9  1 1 1 1 1 1 1 1 1 1 1 1 1 1 3 0 0 0 0 0 0 0 0 0 0 0 0 3 1 1
  10  1 1 1 1 1 1 1 1 1 1 1 1 1 1 3 0 0 0 0 0 0 0 0 0 0 0 0 3 1 1
  11  1 1 1 1 1 1 1 1 1 1 1 1 1 1 3 0 0 0 0 0 0 0 0 0 0 0 0 3 1 1
  12  1 1 1 1 1 1 1 1 1 1 1 1 1 1 3 0 0 0 0 0 0 0 0 0 0 0 0 3 1 1
  13  1 1 1 1 1 1 1 1 1 1 1 1 1 1 3 0 0 0 0 0 0 0 0 0 0 0 0 3 1 1
  14  1 1 1 1 1 1 1 1 1 1 1 1 1 1 2 3 3 3 3 3 3 3 3 3 3 3 3 2 1 1
  15  1 1 1 1 1 1 1 1 1 1 1 1 1 1 1 1 1 1 1 1 1 1 1 1 1 1 1 1 1 1
  16  1 1 1 1 1 1 1 1 1 1 1 1 1 1 1 1 1 1 1 1 1 1 1 1 1 1 1 1 1 1
  17  1 1 1 1 1 1 1 1 1 1 1 1 1 1 1 1 1 1 1 1 1 1 1 1 1 1 1 1 1 1
  18  1 1 1 1 1 1 1 1 1 1 1 1 1 1 1 1 1 1 1 1 1 1 1 1 1 1 1 1 1 1
  19  1 1 1 1 1 1 1 1 1 1 1 1 1 1 1 1 1 1 1 1 1 1 1 1 1 1 1 1 1 1
  20  1 1 1 1 1 1 1 1 1 1 1 1 1 1 1 1 1 1 1 1 1 1 1 1 1 1 1 1 1 1

 BCF -- BLOCK-CENTERED FLOW PACKAGE, VERSION 7, 5/2/2005
         INPUT READ FROM UNIT 13
 STEADY-STATE SIMULATION
 HEAD AT CELLS THAT CONVERT TO DRY=  0.10000E+11
 WETTING CAPABILITY IS NOT ACTIVE
      LAYER  LAYER-TYPE CODE     INTERBLOCK T
      --------------------------------------------
         1            1         10 -- ARITHMETIC  
         2            0          0 -- HARMONIC    

 COLUMN TO ROW ANISOTROPY =   1.00000    

    HYD. COND. ALONG ROWS =   5.00000     FOR LAYER   1

 VERT HYD COND /THICKNESS =  5.000000E-02 FOR LAYER   1

     TRANSMIS. ALONG ROWS =   800.000     FOR LAYER   2

 RCH -- RECHARGE PACKAGE, VERSION 7, 5/2/2005 INPUT READ FROM UNIT   15
 #SEAWATER-LGR Sample Problem, RECH Parent file
 #Recharge file for parent; child cut out
 #Corners: 8/9, Sides: 2/3
 #December, 2007
     3 Named Parameters     
 OPTION 1 -- RECHARGE TO TOP LAYER


     3 Recharge parameters

 PARAMETER NAME:REC-P1       TYPE:RCH    CLUSTERS:   1
 Parameter value from package file is:   2.00000E-03
                MULTIPLIER ARRAY: NONE    ZONE ARRAY: RCHZONE
                ZONE VALUES:    1

 PARAMETER NAME:REC-P2       TYPE:RCH    CLUSTERS:   1
 Parameter value from package file is:   2.00000E-03
                MULTIPLIER ARRAY: NONE    ZONE ARRAY: RCHZONE
                ZONE VALUES:    2

 PARAMETER NAME:REC-P3       TYPE:RCH    CLUSTERS:   1
 Parameter value from package file is:   2.00000E-03
                MULTIPLIER ARRAY: NONE    ZONE ARRAY: RCHZONE
                ZONE VALUES:    3
1
                            STRESS PERIOD NO.    1, LENGTH =   1.000000    
                            -----------------------------------------------

                              NUMBER OF TIME STEPS =     1

                               MULTIPLIER FOR DELT =     1.000

                            INITIAL TIME STEP SIZE =   1.000000    



 RECH array defined by the following parameters:
 Parameter:  REC-P1
 Parameter:  REC-P2
 Parameter:  REC-P3


                           RECHARGE

            1           2           3           4           5           6           7           8           9          10
           11          12          13          14          15          16          17          18          19          20
           21          22          23          24          25          26          27          28          29          30
 ........................................................................................................................
   1   2.0000E-03  2.0000E-03  2.0000E-03  2.0000E-03  2.0000E-03  2.0000E-03  2.0000E-03  2.0000E-03  2.0000E-03  2.0000E-03
       2.0000E-03  2.0000E-03  2.0000E-03  2.0000E-03  2.0000E-03  2.0000E-03  2.0000E-03  2.0000E-03  2.0000E-03  2.0000E-03
       2.0000E-03  2.0000E-03  2.0000E-03  2.0000E-03  2.0000E-03  2.0000E-03  2.0000E-03  2.0000E-03  2.0000E-03  2.0000E-03
   2   2.0000E-03  2.0000E-03  2.0000E-03  2.0000E-03  2.0000E-03  2.0000E-03  2.0000E-03  2.0000E-03  2.0000E-03  2.0000E-03
       2.0000E-03  2.0000E-03  2.0000E-03  2.0000E-03  2.0000E-03  2.0000E-03  2.0000E-03  2.0000E-03  2.0000E-03  2.0000E-03
       2.0000E-03  2.0000E-03  2.0000E-03  2.0000E-03  2.0000E-03  2.0000E-03  2.0000E-03  2.0000E-03  2.0000E-03  2.0000E-03
   3   2.0000E-03  2.0000E-03  2.0000E-03  2.0000E-03  2.0000E-03  2.0000E-03  2.0000E-03  2.0000E-03  2.0000E-03  2.0000E-03
       2.0000E-03  2.0000E-03  2.0000E-03  2.0000E-03  2.0000E-03  2.0000E-03  2.0000E-03  2.0000E-03  2.0000E-03  2.0000E-03
       2.0000E-03  2.0000E-03  2.0000E-03  2.0000E-03  2.0000E-03  2.0000E-03  2.0000E-03  2.0000E-03  2.0000E-03  2.0000E-03
   4   2.0000E-03  2.0000E-03  2.0000E-03  2.0000E-03  2.0000E-03  2.0000E-03  2.0000E-03  2.0000E-03  2.0000E-03  2.0000E-03
       2.0000E-03  2.0000E-03  2.0000E-03  2.0000E-03  2.0000E-03  2.0000E-03  2.0000E-03  2.0000E-03  2.0000E-03  2.0000E-03
       2.0000E-03  2.0000E-03  2.0000E-03  2.0000E-03  2.0000E-03  2.0000E-03  2.0000E-03  2.0000E-03  2.0000E-03  2.0000E-03
   5   2.0000E-03  2.0000E-03  2.0000E-03  2.0000E-03  2.0000E-03  2.0000E-03  2.0000E-03  2.0000E-03  2.0000E-03  2.0000E-03
       2.0000E-03  2.0000E-03  2.0000E-03  2.0000E-03  2.0000E-03  2.0000E-03  2.0000E-03  2.0000E-03  2.0000E-03  2.0000E-03
       2.0000E-03  2.0000E-03  2.0000E-03  2.0000E-03  2.0000E-03  2.0000E-03  2.0000E-03  2.0000E-03  2.0000E-03  2.0000E-03
   6   2.0000E-03  2.0000E-03  2.0000E-03  2.0000E-03  2.0000E-03  2.0000E-03  2.0000E-03  2.0000E-03  2.0000E-03  2.0000E-03
       2.0000E-03  2.0000E-03  2.0000E-03  2.0000E-03  2.0000E-03  2.0000E-03  2.0000E-03  2.0000E-03  2.0000E-03  2.0000E-03
       2.0000E-03  2.0000E-03  2.0000E-03  2.0000E-03  2.0000E-03  2.0000E-03  2.0000E-03  2.0000E-03  2.0000E-03  2.0000E-03
   7   2.0000E-03  2.0000E-03  2.0000E-03  2.0000E-03  2.0000E-03  2.0000E-03  2.0000E-03  2.0000E-03  2.0000E-03  2.0000E-03
       2.0000E-03  2.0000E-03  2.0000E-03  2.0000E-03  2.0000E-03   0.000       0.000       0.000       0.000       0.000    
        0.000       0.000       0.000       0.000       0.000       0.000       0.000      2.0000E-03  2.0000E-03  2.0000E-03
   8   2.0000E-03  2.0000E-03  2.0000E-03  2.0000E-03  2.0000E-03  2.0000E-03  2.0000E-03  2.0000E-03  2.0000E-03  2.0000E-03
       2.0000E-03  2.0000E-03  2.0000E-03  2.0000E-03  2.0000E-03   0.000       0.000       0.000       0.000       0.000    
        0.000       0.000       0.000       0.000       0.000       0.000       0.000      2.0000E-03  2.0000E-03  2.0000E-03
   9   2.0000E-03  2.0000E-03  2.0000E-03  2.0000E-03  2.0000E-03  2.0000E-03  2.0000E-03  2.0000E-03  2.0000E-03  2.0000E-03
       2.0000E-03  2.0000E-03  2.0000E-03  2.0000E-03  2.0000E-03   0.000       0.000       0.000       0.000       0.000    
        0.000       0.000       0.000       0.000       0.000       0.000       0.000      2.0000E-03  2.0000E-03  2.0000E-03
  10   2.0000E-03  2.0000E-03  2.0000E-03  2.0000E-03  2.0000E-03  2.0000E-03  2.0000E-03  2.0000E-03  2.0000E-03  2.0000E-03
       2.0000E-03  2.0000E-03  2.0000E-03  2.0000E-03  2.0000E-03   0.000       0.000       0.000       0.000       0.000    
        0.000       0.000       0.000       0.000       0.000       0.000       0.000      2.0000E-03  2.0000E-03  2.0000E-03
  11   2.0000E-03  2.0000E-03  2.0000E-03  2.0000E-03  2.0000E-03  2.0000E-03  2.0000E-03  2.0000E-03  2.0000E-03  2.0000E-03
       2.0000E-03  2.0000E-03  2.0000E-03  2.0000E-03  2.0000E-03   0.000       0.000       0.000       0.000       0.000    
        0.000       0.000       0.000       0.000       0.000       0.000       0.000      2.0000E-03  2.0000E-03  2.0000E-03
  12   2.0000E-03  2.0000E-03  2.0000E-03  2.0000E-03  2.0000E-03  2.0000E-03  2.0000E-03  2.0000E-03  2.0000E-03  2.0000E-03
       2.0000E-03  2.0000E-03  2.0000E-03  2.0000E-03  2.0000E-03   0.000       0.000       0.000       0.000       0.000    
        0.000       0.000       0.000       0.000       0.000       0.000       0.000      2.0000E-03  2.0000E-03  2.0000E-03
  13   2.0000E-03  2.0000E-03  2.0000E-03  2.0000E-03  2.0000E-03  2.0000E-03  2.0000E-03  2.0000E-03  2.0000E-03  2.0000E-03
       2.0000E-03  2.0000E-03  2.0000E-03  2.0000E-03  2.0000E-03   0.000       0.000       0.000       0.000       0.000    
        0.000       0.000       0.000       0.000       0.000       0.000       0.000      2.0000E-03  2.0000E-03  2.0000E-03
  14   2.0000E-03  2.0000E-03  2.0000E-03  2.0000E-03  2.0000E-03  2.0000E-03  2.0000E-03  2.0000E-03  2.0000E-03  2.0000E-03
       2.0000E-03  2.0000E-03  2.0000E-03  2.0000E-03  2.0000E-03  2.0000E-03  2.0000E-03  2.0000E-03  2.0000E-03  2.0000E-03
       2.0000E-03  2.0000E-03  2.0000E-03  2.0000E-03  2.0000E-03  2.0000E-03  2.0000E-03  2.0000E-03  2.0000E-03  2.0000E-03
  15   2.0000E-03  2.0000E-03  2.0000E-03  2.0000E-03  2.0000E-03  2.0000E-03  2.0000E-03  2.0000E-03  2.0000E-03  2.0000E-03
       2.0000E-03  2.0000E-03  2.0000E-03  2.0000E-03  2.0000E-03  2.0000E-03  2.0000E-03  2.0000E-03  2.0000E-03  2.0000E-03
       2.0000E-03  2.0000E-03  2.0000E-03  2.0000E-03  2.0000E-03  2.0000E-03  2.0000E-03  2.0000E-03  2.0000E-03  2.0000E-03
  16   2.0000E-03  2.0000E-03  2.0000E-03  2.0000E-03  2.0000E-03  2.0000E-03  2.0000E-03  2.0000E-03  2.0000E-03  2.0000E-03
       2.0000E-03  2.0000E-03  2.0000E-03  2.0000E-03  2.0000E-03  2.0000E-03  2.0000E-03  2.0000E-03  2.0000E-03  2.0000E-03
       2.0000E-03  2.0000E-03  2.0000E-03  2.0000E-03  2.0000E-03  2.0000E-03  2.0000E-03  2.0000E-03  2.0000E-03  2.0000E-03
  17   2.0000E-03  2.0000E-03  2.0000E-03  2.0000E-03  2.0000E-03  2.0000E-03  2.0000E-03  2.0000E-03  2.0000E-03  2.0000E-03
       2.0000E-03  2.0000E-03  2.0000E-03  2.0000E-03  2.0000E-03  2.0000E-03  2.0000E-03  2.0000E-03  2.0000E-03  2.0000E-03
       2.0000E-03  2.0000E-03  2.0000E-03  2.0000E-03  2.0000E-03  2.0000E-03  2.0000E-03  2.0000E-03  2.0000E-03  2.0000E-03
  18   2.0000E-03  2.0000E-03  2.0000E-03  2.0000E-03  2.0000E-03  2.0000E-03  2.0000E-03  2.0000E-03  2.0000E-03  2.0000E-03
       2.0000E-03  2.0000E-03  2.0000E-03  2.0000E-03  2.0000E-03  2.0000E-03  2.0000E-03  2.0000E-03  2.0000E-03  2.0000E-03
       2.0000E-03  2.0000E-03  2.0000E-03  2.0000E-03  2.0000E-03  2.0000E-03  2.0000E-03  2.0000E-03  2.0000E-03  2.0000E-03
  19   2.0000E-03  2.0000E-03  2.0000E-03  2.0000E-03  2.0000E-03  2.0000E-03  2.0000E-03  2.0000E-03  2.0000E-03  2.0000E-03
       2.0000E-03  2.0000E-03  2.0000E-03  2.0000E-03  2.0000E-03  2.0000E-03  2.0000E-03  2.0000E-03  2.0000E-03  2.0000E-03
       2.0000E-03  2.0000E-03  2.0000E-03  2.0000E-03  2.0000E-03  2.0000E-03  2.0000E-03  2.0000E-03  2.0000E-03  2.0000E-03
  20   2.0000E-03  2.0000E-03  2.0000E-03  2.0000E-03  2.0000E-03  2.0000E-03  2.0000E-03  2.0000E-03  2.0000E-03  2.0000E-03
       2.0000E-03  2.0000E-03  2.0000E-03  2.0000E-03  2.0000E-03  2.0000E-03  2.0000E-03  2.0000E-03  2.0000E-03  2.0000E-03
       2.0000E-03  2.0000E-03  2.0000E-03  2.0000E-03  2.0000E-03  2.0000E-03  2.0000E-03  2.0000E-03  2.0000E-03  2.0000E-03

Flows at Managed Wells for Stress Period    1

 Well no.  Layer   Row   Col   Stress Rate
 ----------------------------------------------------
        1      1    17    20   -3265.681757536537    
        2      2    17    20   -3265.681757536537    
        3      1     3    19   -2716.298623049992    
        4      2     3    19   -2716.298623049992    
 ----------------------------------------------------
                      Total:   -11963.96076117306    
 
 SOLVING FOR HEAD 
1
              HEAD IN LAYER   1 AT END OF TIME STEP   1 IN STRESS PERIOD    1
  ---------------------------------------------------------------------------

            1           2           3           4           5           6           7           8           9          10
           11          12          13          14          15          16          17          18          19          20
           21          22          23          24          25          26          27          28          29          30
 ........................................................................................................................
   1    27.80       27.72       27.56       27.31       26.98       26.56       26.06       25.48       24.80       24.04    
        23.19       22.25       21.20       20.07       18.83       17.49       16.07       14.61       13.26       12.26    
        11.38       10.48       9.516       8.461       7.311       6.063       4.715       3.263       1.706       0.000    
   2    27.80       27.72       27.56       27.31       26.98       26.57       26.07       25.48       24.81       24.05    
        23.20       22.25       21.21       20.07       18.83       17.47       16.00       14.41       12.79       12.05    
        11.30       10.46       9.509       8.459       7.311       6.063       4.715       3.263       1.706       0.000    
   3    27.81       27.73       27.56       27.31       26.98       26.57       26.07       25.49       24.82       24.06    
        23.21       22.27       21.23       20.10       18.85       17.49       15.95       14.09       10.66       11.71    
        11.23       10.45       9.508       8.460       7.312       6.063       4.715       3.263       1.706       0.000    
   4    27.81       27.73       27.57       27.32       26.99       26.58       26.08       25.50       24.83       24.07    
        23.23       22.29       21.26       20.13       18.90       17.57       16.11       14.53       12.90       12.14    
        11.36       10.49       9.524       8.466       7.313       6.064       4.715       3.263       1.706       0.000    
   5    27.82       27.74       27.57       27.33       27.00       26.58       26.09       25.51       24.84       24.09    
        23.25       22.32       21.30       20.18       18.97       17.67       16.29       14.87       13.52       12.45    
        11.49       10.53       9.538       8.469       7.314       6.064       4.715       3.263       1.706       0.000    
   6    27.82       27.74       27.58       27.33       27.01       26.59       26.10       25.52       24.86       24.11    
        23.27       22.35       21.33       20.23       19.04       17.76       16.42       15.04       13.72       12.55    
        11.51       10.53       9.528       8.462       7.310       6.062       4.714       3.263       1.706       0.000    
   7    27.83       27.75       27.59       27.34       27.01       26.61       26.11       25.54       24.88       24.13    
        23.30       22.38       21.37       20.28       19.10       0.000       0.000       0.000       0.000       0.000    
        0.000       0.000       0.000       0.000       0.000       0.000       0.000       0.000       1.706       0.000    
   8    27.84       27.76       27.59       27.35       27.02       26.62       26.13       25.55       24.90       24.15    
        23.33       22.41       21.41       20.32       19.15       0.000       0.000       0.000       0.000       0.000    
        0.000       0.000       0.000       0.000       0.000       0.000       0.000       0.000       1.706       0.000    
   9    27.85       27.77       27.60       27.36       27.04       26.63       26.14       25.57       24.91       24.18    
        23.35       22.44       21.45       20.37       19.20       0.000       0.000       0.000       0.000       0.000    
        0.000       0.000       0.000       0.000       0.000       0.000       0.000       0.000       1.708       0.000    
  10    27.85       27.77       27.61       27.37       27.05       26.64       26.15       25.58       24.93       24.20    
        23.38       22.47       21.48       20.41       19.25       0.000       0.000       0.000       0.000       0.000    
        0.000       0.000       0.000       0.000       0.000       0.000       0.000       0.000       1.710       0.000    
  11    27.86       27.78       27.62       27.38       27.06       26.65       26.17       25.60       24.95       24.21    
        23.40       22.50       21.52       20.45       19.30       0.000       0.000       0.000       0.000       0.000    
        0.000       0.000       0.000       0.000       0.000       0.000       0.000       0.000       1.711       0.000    
  12    27.87       27.79       27.63       27.39       27.07       26.66       26.18       25.61       24.96       24.23    
        23.42       22.52       21.54       20.48       19.34       0.000       0.000       0.000       0.000       0.000    
        0.000       0.000       0.000       0.000       0.000       0.000       0.000       0.000       1.713       0.000    
  13    27.88       27.80       27.64       27.40       27.07       26.67       26.19       25.62       24.98       24.25    
        23.43       22.54       21.56       20.50       19.37       0.000       0.000       0.000       0.000       0.000    
        0.000       0.000       0.000       0.000       0.000       0.000       0.000       0.000       1.713       0.000    
  14    27.88       27.80       27.64       27.40       27.08       26.68       26.20       25.63       24.99       24.26    
        23.45       22.55       21.57       20.51       19.37       18.15       16.87       15.55       14.22       12.95    
        11.81       10.75       9.676       8.561       7.376       6.105       4.742       3.280       1.714       0.000    
  15    27.89       27.81       27.65       27.41       27.09       26.69       26.20       25.64       24.99       24.27    
        23.45       22.56       21.58       20.51       19.36       18.12       16.80       15.41       13.98       12.62    
        11.57       10.60       9.596       8.519       7.354       6.094       4.736       3.277       1.713       0.000    
  16    27.89       27.81       27.65       27.41       27.09       26.69       26.21       25.65       25.00       24.27    
        23.46       22.56       21.58       20.51       19.34       18.08       16.71       15.21       13.56       11.85    
        11.15       10.39       9.494       8.468       7.328       6.080       4.729       3.273       1.711       0.000    
  17    27.90       27.82       27.66       27.42       27.10       26.70       26.22       25.65       25.01       24.28    
        23.46       22.57       21.58       20.50       19.33       18.06       16.65       15.06       13.06       9.129    
        10.63       10.23       9.428       8.436       7.310       6.070       4.723       3.270       1.709       0.000    
  18    27.90       27.82       27.66       27.42       27.10       26.70       26.22       25.66       25.01       24.28    
        23.47       22.57       21.58       20.51       19.34       18.07       16.68       15.17       13.52       11.80    
        11.10       10.35       9.459       8.441       7.308       6.067       4.720       3.268       1.708       0.000    
  19    27.90       27.82       27.66       27.42       27.10       26.70       26.22       25.66       25.01       24.28    
        23.47       22.57       21.58       20.51       19.35       18.09       16.75       15.33       13.88       12.51    
        11.46       10.51       9.525       8.466       7.316       6.068       4.720       3.267       1.708       0.000    
  20    27.90       27.82       27.67       27.43       27.11       26.70       26.22       25.66       25.01       24.28    
        23.47       22.57       21.59       20.51       19.35       18.11       16.79       15.43       14.06       12.77    
        11.64       10.61       9.571       8.486       7.324       6.071       4.720       3.267       1.708       0.000    
1
              HEAD IN LAYER   2 AT END OF TIME STEP   1 IN STRESS PERIOD    1
  ---------------------------------------------------------------------------

            1           2           3           4           5           6           7           8           9          10
           11          12          13          14          15          16          17          18          19          20
           21          22          23          24          25          26          27          28          29          30
 ........................................................................................................................
   1    27.77       27.69       27.52       27.28       26.94       26.53       26.03       25.44       24.77       24.01    
        23.16       22.21       21.17       20.03       18.79       17.45       16.03       14.57       13.22       12.22    
        11.34       10.45       9.478       8.422       7.272       6.023       4.673       3.221       1.663       0.000    
   2    27.77       27.69       27.53       27.28       26.95       26.53       26.03       25.45       24.78       24.01    
        23.16       22.22       21.18       20.04       18.79       17.44       15.96       14.37       12.78       12.01    
        11.27       10.42       9.471       8.421       7.271       6.023       4.673       3.221       1.664       0.000    
   3    27.78       27.69       27.53       27.28       26.95       26.54       26.04       25.45       24.78       24.02    
        23.17       22.23       21.20       20.06       18.82       17.45       15.91       14.07       11.49       11.70    
        11.20       10.41       9.471       8.422       7.272       6.023       4.674       3.221       1.664       0.000    
   4    27.78       27.70       27.53       27.29       26.96       26.54       26.05       25.46       24.79       24.04    
        23.19       22.26       21.22       20.10       18.87       17.53       16.07       14.49       12.90       12.10    
        11.32       10.45       9.486       8.427       7.274       6.024       4.674       3.221       1.664       0.000    
   5    27.78       27.70       27.54       27.29       26.96       26.55       26.06       25.48       24.81       24.06    
        23.21       22.28       21.26       20.14       18.94       17.63       16.25       14.83       13.48       12.41    
        11.45       10.50       9.499       8.430       7.274       6.024       4.674       3.221       1.664       0.000    
   6    27.79       27.71       27.55       27.30       26.97       26.56       26.07       25.49       24.83       24.08    
        23.24       22.31       21.30       20.19       19.00       17.72       16.38       15.01       13.68       12.51    
        11.47       10.49       9.490       8.424       7.271       6.022       4.673       3.221       1.664       0.000    
   7    27.80       27.72       27.55       27.31       26.98       26.57       26.08       25.50       24.84       24.10    
        23.26       22.35       21.34       20.24       19.06       0.000       0.000       0.000       0.000       0.000    
        0.000       0.000       0.000       0.000       0.000       0.000       0.000       0.000       1.665       0.000    
   8    27.81       27.72       27.56       27.32       26.99       26.58       26.09       25.52       24.86       24.12    
        23.29       22.38       21.38       20.29       19.11       0.000       0.000       0.000       0.000       0.000    
        0.000       0.000       0.000       0.000       0.000       0.000       0.000       0.000       1.666       0.000    
   9    27.81       27.73       27.57       27.33       27.00       26.60       26.11       25.53       24.88       24.14    
        23.32       22.41       21.41       20.33       19.16       0.000       0.000       0.000       0.000       0.000    
        0.000       0.000       0.000       0.000       0.000       0.000       0.000       0.000       1.667       0.000    
  10    27.82       27.74       27.58       27.34       27.01       26.61       26.12       25.55       24.90       24.16    
        23.34       22.44       21.45       20.37       19.21       0.000       0.000       0.000       0.000       0.000    
        0.000       0.000       0.000       0.000       0.000       0.000       0.000       0.000       1.669       0.000    
  11    27.83       27.75       27.59       27.35       27.02       26.62       26.13       25.56       24.91       24.18    
        23.36       22.46       21.48       20.41       19.26       0.000       0.000       0.000       0.000       0.000    
        0.000       0.000       0.000       0.000       0.000       0.000       0.000       0.000       1.671       0.000    
  12    27.84       27.76       27.60       27.35       27.03       26.63       26.14       25.58       24.93       24.20    
        23.38       22.49       21.51       20.45       19.31       0.000       0.000       0.000       0.000       0.000    
        0.000       0.000       0.000       0.000       0.000       0.000       0.000       0.000       1.672       0.000    
  13    27.84       27.76       27.60       27.36       27.04       26.64       26.15       25.59       24.94       24.21    
        23.40       22.50       21.53       20.47       19.33       0.000       0.000       0.000       0.000       0.000    
        0.000       0.000       0.000       0.000       0.000       0.000       0.000       0.000       1.673       0.000    
  14    27.85       27.77       27.61       27.37       27.05       26.65       26.16       25.60       24.95       24.22    
        23.41       22.52       21.54       20.48       19.33       18.12       16.83       15.51       14.18       12.91    
        11.78       10.71       9.638       8.523       7.337       6.066       4.701       3.238       1.672       0.000    
  15    27.86       27.78       27.62       27.38       27.06       26.65       26.17       25.61       24.96       24.23    
        23.42       22.52       21.54       20.48       19.32       18.09       16.76       15.37       13.94       12.58    
        11.53       10.56       9.558       8.480       7.314       6.054       4.695       3.235       1.670       0.000    
  16    27.86       27.78       27.62       27.38       27.06       26.66       26.18       25.61       24.97       24.24    
        23.43       22.53       21.54       20.47       19.31       18.04       16.67       15.17       13.53       11.85    
        11.11       10.35       9.456       8.430       7.288       6.040       4.688       3.231       1.669       0.000    
  17    27.87       27.79       27.63       27.39       27.07       26.66       26.18       25.62       24.97       24.24    
        23.43       22.53       21.54       20.47       19.30       18.02       16.61       15.02       13.05       10.16    
        10.63       10.19       9.390       8.397       7.271       6.030       4.682       3.228       1.667       0.000    
  18    27.87       27.79       27.63       27.39       27.07       26.67       26.19       25.62       24.98       24.25    
        23.43       22.53       21.55       20.47       19.30       18.03       16.65       15.13       13.48       11.80    
        11.06       10.31       9.421       8.403       7.269       6.026       4.679       3.226       1.666       0.000    
  19    27.87       27.79       27.63       27.39       27.07       26.67       26.19       25.62       24.98       24.25    
        23.43       22.53       21.55       20.47       19.31       18.05       16.71       15.29       13.84       12.47    
        11.43       10.47       9.487       8.427       7.277       6.028       4.678       3.225       1.666       0.000    
  20    27.87       27.79       27.63       27.39       27.07       26.67       26.19       25.63       24.98       24.25    
        23.44       22.54       21.55       20.48       19.32       18.07       16.76       15.39       14.02       12.73    
        11.61       10.57       9.532       8.447       7.284       6.031       4.679       3.225       1.665       0.000    
1
  VOLUMETRIC BUDGET FOR ENTIRE MODEL AT END OF TIME STEP    1, STRESS PERIOD   1
  ------------------------------------------------------------------------------

     CUMULATIVE VOLUMES      L**3       RATES FOR THIS TIME STEP      L**3/T
     ------------------                 ------------------------

           IN:                                      IN:
           ---                                      ---
             STORAGE =           0.0000               STORAGE =           0.0000
       CONSTANT HEAD =           0.0000         CONSTANT HEAD =           0.0000
            RECHARGE =       39120.0000              RECHARGE =       39120.0000
       MANAGED WELLS =           0.0000         MANAGED WELLS =           0.0000
     GHOST-NODE FLUX =       10008.6753       GHOST-NODE FLUX =       10008.6753

            TOTAL IN =       49128.6753              TOTAL IN =       49128.6753

          OUT:                                     OUT:
          ----                                     ----
             STORAGE =           0.0000               STORAGE =           0.0000
       CONSTANT HEAD =       28525.8790         CONSTANT HEAD =       28525.8790
            RECHARGE =           0.0000              RECHARGE =           0.0000
       MANAGED WELLS =       11963.9608         MANAGED WELLS =       11963.9608
     GHOST-NODE FLUX =        8638.8355       GHOST-NODE FLUX =        8638.8355

           TOTAL OUT =       49128.6753             TOTAL OUT =       49128.6753

            IN - OUT =      -2.0678E-08              IN - OUT =      -2.0678E-08

 PERCENT DISCREPANCY =           0.00     PERCENT DISCREPANCY =           0.00






         TIME SUMMARY AT END OF TIME STEP    1 IN STRESS PERIOD    1
                    SECONDS     MINUTES      HOURS       DAYS        YEARS
                    -----------------------------------------------------------
   TIME STEP LENGTH  86400.      1440.0      24.000      1.0000     2.73785E-03
 STRESS PERIOD TIME  86400.      1440.0      24.000      1.0000     2.73785E-03
         TOTAL TIME  86400.      1440.0      24.000      1.0000     2.73785E-03
1
