                                  MODFLOW-LGR      
      U.S. GEOLOGICAL SURVEY MODULAR FINITE-DIFFERENCE GROUNDWATER FLOW MODEL
                 VERSION GWM-2005 1.4.1 062012,FROM MF-LGR V1.2


     FINAL FLOW PROCESS SIMULATION FOR GWM                                                                                                                                                                   


 REWOUND ..\data\SUPPLY-3GRID\sup3g_c1.ba6
 FILE TYPE:BAS6   UNIT   21

 REWOUND ..\data\SUPPLY-3GRID\sup3g_c1.bc6
 FILE TYPE:BCF6   UNIT   22

 REWOUND ..\data\SUPPLY-3GRID\sup3g_c1.dis
 FILE TYPE:DIS   UNIT   23

 REWOUND ..\data\SUPPLY-3GRID\sup3g_chd.pcg
 FILE TYPE:PCG   UNIT   24

 REWOUND ..\data\SUPPLY-3GRID\sup3g_chd.rch
 FILE TYPE:RCH   UNIT   25

 REWOUND ..\data\SUPPLY-3GRID\sup3g_c1.gwm
 FILE TYPE:GWM   UNIT   26

 BAS -- BASIC PACKAGE, VERSION 7, 5/2/2005 INPUT READ FROM UNIT   21

 DISCRETIZATION INPUT DATA READ FROM UNIT   23
 #SUP3G Sample Problem, child #1 DIS file
    1 LAYERS        46 ROWS        46 COLUMNS
    1 STRESS PERIOD(S) IN SIMULATION
 MODEL TIME UNIT IS DAYS
 MODEL LENGTH UNIT IS UNDEFINED
  Confining bed flag for each layer:
   0

                     DELR =   200.000    

                     DELC =   200.000    

 TOP ELEVATION OF LAYER 1 =   200.000    

   MODEL LAYER BOTTOM EL. =   0.00000     FOR LAYER   1


 STRESS PERIOD     LENGTH       TIME STEPS     MULTIPLIER FOR DELT    SS FLAG
 ----------------------------------------------------------------------------
        1         1000.000          1                    1.000         SS

 STEADY-STATE SIMULATION



 
 #SUP3G Sample Problem, child #1 BAS file (46x46)                                
 THE FREE FORMAT OPTION HAS BEEN SELECTED



                     BOUNDARY ARRAY FOR LAYER   1
 READING ON UNIT   21 WITH FORMAT: (20I4)              

                1           2           3           4           5           6           7           8           9          10
               11          12          13          14          15          16          17          18          19          20
               21          22          23          24          25          26          27          28          29          30
               31          32          33          34          35          36          37          38          39          40
               41          42          43          44          45          46
 ............................................................................................................................
   1          -59         -59         -59         -59         -59         -59         -59         -59         -59         -59
              -59         -59         -59         -59         -59         -59         -59         -59         -59         -59
              -59         -59         -59         -59         -59         -59         -59         -59         -59         -59
              -59         -59         -59         -59         -59         -59         -59         -59         -59         -59
              -59         -59         -59         -59         -59         -59
   2          -59           1           1           1           1           1           1           1           1           1
                1           1           1           1           1           1           1           1           1           1
                1           1           1           1           1           1           1           1           1           1
                1           1           1           1           1           1           1           1           1           1
                1           1           1           1           1         -59
   3          -59           1           1           1           1           1           1           1           1           1
                1           1           1           1           1           1           1           1           1           1
                1           1           1           1           1           1           1           1           1           1
                1           1           1           1           1           1           1           1           1           1
                1           1           1           1           1         -59
   4          -59           1           1           1           1           1           1           1           1           1
                1           1           1           1           1           1           1           1           1           1
                1           1           1           1           1           1           1           1           1           1
                1           1           1           1           1           1           1           1           1           1
                1           1           1           1           1         -59
   5          -59           1           1           1           1           1           1           1           1           1
                1           1           1           1           1           1           1           1           1           1
                1           1           1           1           1           1           1           1           1           1
                1           1           1           1           1           1           1           1           1           1
                1           1           1           1           1         -59
   6          -59           1           1           1           1           1           1           1           1           1
                1           1           1           1           1           1           1           1           1           1
                1           1           1           1           1           1           1           1           1           1
                1           1           1           1           1           1           1           1           1           1
                1           1           1           1           1         -59
   7          -59           1           1           1           1           1           1           1           1           1
                1           1           1           1           1           1           1           1           1           1
                1           1           1           1           1           1           1           1           1           1
                1           1           1           1           1           1           1           1           1           1
                1           1           1           1           1         -59
   8          -59           1           1           1           1           1           1           1           1           1
                1           1           1           1           1           1           1           1           1           1
                1           1           1           1           1           1           1           1           1           1
                1           1           1           1           1           1           1           1           1           1
                1           1           1           1           1         -59
   9          -59           1           1           1           1           1           1           1           1           1
                1           1           1           1           1           1           1           1           1           1
                1           1           1           1           1           1           1           1           1           1
                1           1           1           1           1           1           1           1           1           1
                1           1           1           1           1         -59
  10          -59           1           1           1           1           1           1           1           1           1
                1           1           1           1           1           1           1           1           1           1
                1           1           1           1           1           1           1           1           1           1
                1           1           1           1           1           1           1           1           1           1
                1           1           1           1           1         -59
  11          -59           1           1           1           1           1           1           1           1           1
                1           1           1           1           1           1           1           1           1           1
                1           1           1           1           1           1           1           1           1           1
                1           1           1           1           1           1           1           1           1           1
                1           1           1           1           1         -59
  12          -59           1           1           1           1           1           1           1           1           1
                1           1           1           1           1           1           1           1           1           1
                1           1           1           1           1           1           1           1           1           1
                1           1           1           1           1           1           1           1           1           1
                1           1           1           1           1         -59
  13          -59           1           1           1           1           1           1           1           1           1
                1           1           1           1           1           1           1           1           1           1
                1           1           1           1           1           1           1           1           1           1
                1           1           1           1           1           1           1           1           1           1
                1           1           1           1           1         -59
  14          -59           1           1           1           1           1           1           1           1           1
                1           1           1           1           1           1           1           1           1           1
                1           1           1           1           1           1           1           1           1           1
                1           1           1           1           1           1           1           1           1           1
                1           1           1           1           1         -59
  15          -59           1           1           1           1           1           1           1           1           1
                1           1           1           1           1           1           1           1           1           1
                1           1           1           1           1           1           1           1           1           1
                1           1           1           1           1           1           1           1           1           1
                1           1           1           1           1         -59
  16          -59           1           1           1           1           1           1           1           1           1
                1           1           1           1           1           1           1           1           1           1
                1           1           1           1           1           1           1           1           1           1
                1           1           1           1           1           1           1           1           1           1
                1           1           1           1           1         -59
  17          -59           1           1           1           1           1           1           1           1           1
                1           1           1           1           1           1           1           1           1           1
                1           1           1           1           1           1           1           1           1           1
                1           1           1           1           1           1           1           1           1           1
                1           1           1           1           1         -59
  18          -59           1           1           1           1           1           1           1           1           1
                1           1           1           1           1           1           1           1           1           1
                1           1           1           1           1           1           1           1           1           1
                1           1           1           1           1           1           1           1           1           1
                1           1           1           1           1         -59
  19          -59           1           1           1           1           1           1           1           1           1
                1           1           1           1           1           1           1           1           1           1
                1           1           1           1           1           1           1           1           1           1
                1           1           1           1           1           1           1           1           1           1
                1           1           1           1           1         -59
  20          -59           1           1           1           1           1           1           1           1           1
                1           1           1           1           1           1           1           1           1           1
                1           1           1           1           1           1           1           1           1           1
                1           1           1           1           1           1           1           1           1           1
                1           1           1           1           1         -59
  21          -59           1           1           1           1           1           1           1           1           1
                1           1           1           1           1           1           1           1           1           1
                1           1           1           1           1           1           1           1           1           1
                1           1           1           1           1           1           1           1           1           1
                1           1           1           1           1         -59
  22          -59           1           1           1           1           1           1           1           1           1
                1           1           1           1           1           1           1           1           1           1
                1           1           1           1           1           1           1           1           1           1
                1           1           1           1           1           1           1           1           1           1
                1           1           1           1           1         -59
  23          -59           1           1           1           1           1           1           1           1           1
                1           1           1           1           1           1           1           1           1           1
                1           1           1           1           1           1           1           1           1           1
                1           1           1           1           1           1           1           1           1           1
                1           1           1           1           1         -59
  24          -59           1           1           1           1           1           1           1           1           1
                1           1           1           1           1           1           1           1           1           1
                1           1           1           1           1           1           1           1           1           1
                1           1           1           1           1           1           1           1           1           1
                1           1           1           1           1         -59
  25          -59           1           1           1           1           1           1           1           1           1
                1           1           1           1           1           1           1           1           1           1
                1           1           1           1           1           1           1           1           1           1
                1           1           1           1           1           1           1           1           1           1
                1           1           1           1           1         -59
  26          -59           1           1           1           1           1           1           1           1           1
                1           1           1           1           1           1           1           1           1           1
                1           1           1           1           1           1           1           1           1           1
                1           1           1           1           1           1           1           1           1           1
                1           1           1           1           1         -59
  27          -59           1           1           1           1           1           1           1           1           1
                1           1           1           1           1           1           1           1           1           1
                1           1           1           1           1           1           1           1           1           1
                1           1           1           1           1           1           1           1           1           1
                1           1           1           1           1         -59
  28          -59           1           1           1           1           1           1           1           1           1
                1           1           1           1           1           1           1           1           1           1
                1           1           1           1           1           1           1           1           1           1
                1           1           1           1           1           1           1           1           1           1
                1           1           1           1           1         -59
  29          -59           1           1           1           1           1           1           1           1           1
                1           1           1           1           1           1           1           1           1           1
                1           1           1           1           1           1           1           1           1           1
                1           1           1           1           1           1           1           1           1           1
                1           1           1           1           1         -59
  30          -59           1           1           1           1           1           1           1           1           1
                1           1           1           1           1           1           1           1           1           1
                1           1           1           1           1           1           1           1           1           1
                1           1           1           1           1           1           1           1           1           1
                1           1           1           1           1         -59
  31          -59           1           1           1           1           1           1           1           1           1
                1           1           1           1           1           1           1           1           1           1
                1           1           1           1           1           1           1           1           1           1
                1           1           1           1           1           1           1           1           1           1
                1           1           1           1           1         -59
  32          -59           1           1           1           1           1           1           1           1           1
                1           1           1           1           1           1           1           1           1           1
                1           1           1           1           1           1           1           1           1           1
                1           1           1           1           1           1           1           1           1           1
                1           1           1           1           1         -59
  33          -59           1           1           1           1           1           1           1           1           1
                1           1           1           1           1           1           1           1           1           1
                1           1           1           1           1           1           1           1           1           1
                1           1           1           1           1           1           1           1           1           1
                1           1           1           1           1         -59
  34          -59           1           1           1           1           1           1           1           1           1
                1           1           1           1           1           1           1           1           1           1
                1           1           1           1           1           1           1           1           1           1
                1           1           1           1           1           1           1           1           1           1
                1           1           1           1           1         -59
  35          -59           1           1           1           1           1           1           1           1           1
                1           1           1           1           1           1           1           1           1           1
                1           1           1           1           1           1           1           1           1           1
                1           1           1           1           1           1           1           1           1           1
                1           1           1           1           1         -59
  36          -59           1           1           1           1           1           1           1           1           1
                1           1           1           1           1           1           1           1           1           1
                1           1           1           1           1           1           1           1           1           1
                1           1           1           1           1           1           1           1           1           1
                1           1           1           1           1         -59
  37          -59           1           1           1           1           1           1           1           1           1
                1           1           1           1           1           1           1           1           1           1
                1           1           1           1           1           1           1           1           1           1
                1           1           1           1           1           1           1           1           1           1
                1           1           1           1           1         -59
  38          -59           1           1           1           1           1           1           1           1           1
                1           1           1           1           1           1           1           1           1           1
                1           1           1           1           1           1           1           1           1           1
                1           1           1           1           1           1           1           1           1           1
                1           1           1           1           1         -59
  39          -59           1           1           1           1           1           1           1           1           1
                1           1           1           1           1           1           1           1           1           1
                1           1           1           1           1           1           1           1           1           1
                1           1           1           1           1           1           1           1           1           1
                1           1           1           1           1         -59
  40          -59           1           1           1           1           1           1           1           1           1
                1           1           1           1           1           1           1           1           1           1
                1           1           1           1           1           1           1           1           1           1
                1           1           1           1           1           1           1           1           1           1
                1           1           1           1           1         -59
  41          -59           1           1           1           1           1           1           1           1           1
                1           1           1           1           1           1           1           1           1           1
                1           1           1           1           1           1           1           1           1           1
                1           1           1           1           1           1           1           1           1           1
                1           1           1           1           1         -59
  42          -59           1           1           1           1           1           1           1           1           1
                1           1           1           1           1           1           1           1           1           1
                1           1           1           1           1           1           1           1           1           1
                1           1           1           1           1           1           1           1           1           1
                1           1           1           1           1         -59
  43          -59           1           1           1           1           1           1           1           1           1
                1           1           1           1           1           1           1           1           1           1
                1           1           1           1           1           1           1           1           1           1
                1           1           1           1           1           1           1           1           1           1
                1           1           1           1           1         -59
  44          -59           1           1           1           1           1           1           1           1           1
                1           1           1           1           1           1           1           1           1           1
                1           1           1           1           1           1           1           1           1           1
                1           1           1           1           1           1           1           1           1           1
                1           1           1           1           1         -59
  45          -59           1           1           1           1           1           1           1           1           1
                1           1           1           1           1           1           1           1           1           1
                1           1           1           1           1           1           1           1           1           1
                1           1           1           1           1           1           1           1           1           1
                1           1           1           1           1         -59
  46          -59         -59         -59         -59         -59         -59         -59         -59         -59         -59
              -59         -59         -59         -59         -59         -59         -59         -59         -59         -59
              -59         -59         -59         -59         -59         -59         -59         -59         -59         -59
              -59         -59         -59         -59         -59         -59         -59         -59         -59         -59
              -59         -59         -59         -59         -59         -59

 AQUIFER HEAD WILL BE SET TO  0.0000     AT ALL NO-FLOW NODES (IBOUND=0).



                       INITIAL HEAD FOR LAYER   1
 READING ON UNIT   21 WITH FORMAT: (10F13.0)           

            1           2           3           4           5           6           7           8           9          10
           11          12          13          14          15          16          17          18          19          20
           21          22          23          24          25          26          27          28          29          30
           31          32          33          34          35          36          37          38          39          40
           41          42          43          44          45          46
 ........................................................................................................................
   1    150.0       150.0       150.0       150.0       150.0       150.0       150.0       150.0       150.0       150.0    
        150.0       150.0       150.0       150.0       150.0       150.0       150.0       150.0       150.0       150.0    
        150.0       150.0       150.0       150.0       150.0       150.0       150.0       150.0       150.0       150.0    
        150.0       150.0       150.0       150.0       150.0       150.0       150.0       150.0       150.0       150.0    
        150.0       150.0       150.0       150.0       150.0       150.0    
   2    150.0       150.0       150.0       150.0       150.0       150.0       150.0       150.0       150.0       150.0    
        150.0       150.0       150.0       150.0       150.0       150.0       150.0       150.0       150.0       150.0    
        150.0       150.0       150.0       150.0       150.0       150.0       150.0       150.0       150.0       150.0    
        150.0       150.0       150.0       150.0       150.0       150.0       150.0       150.0       150.0       150.0    
        150.0       150.0       150.0       150.0       150.0       150.0    
   3    150.0       150.0       150.0       150.0       150.0       150.0       150.0       150.0       150.0       150.0    
        150.0       150.0       150.0       150.0       150.0       150.0       150.0       150.0       150.0       150.0    
        150.0       150.0       150.0       150.0       150.0       150.0       150.0       150.0       150.0       150.0    
        150.0       150.0       150.0       150.0       150.0       150.0       150.0       150.0       150.0       150.0    
        150.0       150.0       150.0       150.0       150.0       150.0    
   4    150.0       150.0       150.0       150.0       150.0       150.0       150.0       150.0       150.0       150.0    
        150.0       150.0       150.0       150.0       150.0       150.0       150.0       150.0       150.0       150.0    
        150.0       150.0       150.0       150.0       150.0       150.0       150.0       150.0       150.0       150.0    
        150.0       150.0       150.0       150.0       150.0       150.0       150.0       150.0       150.0       150.0    
        150.0       150.0       150.0       150.0       150.0       150.0    
   5    150.0       150.0       150.0       150.0       150.0       150.0       150.0       150.0       150.0       150.0    
        150.0       150.0       150.0       150.0       150.0       150.0       150.0       150.0       150.0       150.0    
        150.0       150.0       150.0       150.0       150.0       150.0       150.0       150.0       150.0       150.0    
        150.0       150.0       150.0       150.0       150.0       150.0       150.0       150.0       150.0       150.0    
        150.0       150.0       150.0       150.0       150.0       150.0    
   6    150.0       150.0       150.0       150.0       150.0       150.0       150.0       150.0       150.0       150.0    
        150.0       150.0       150.0       150.0       150.0       150.0       150.0       150.0       150.0       150.0    
        150.0       150.0       150.0       150.0       150.0       150.0       150.0       150.0       150.0       150.0    
        150.0       150.0       150.0       150.0       150.0       150.0       150.0       150.0       150.0       150.0    
        150.0       150.0       150.0       150.0       150.0       150.0    
   7    150.0       150.0       150.0       150.0       150.0       150.0       150.0       150.0       150.0       150.0    
        150.0       150.0       150.0       150.0       150.0       150.0       150.0       150.0       150.0       150.0    
        150.0       150.0       150.0       150.0       150.0       150.0       150.0       150.0       150.0       150.0    
        150.0       150.0       150.0       150.0       150.0       150.0       150.0       150.0       150.0       150.0    
        150.0       150.0       150.0       150.0       150.0       150.0    
   8    150.0       150.0       150.0       150.0       150.0       150.0       150.0       150.0       150.0       150.0    
        150.0       150.0       150.0       150.0       150.0       150.0       150.0       150.0       150.0       150.0    
        150.0       150.0       150.0       150.0       150.0       150.0       150.0       150.0       150.0       150.0    
        150.0       150.0       150.0       150.0       150.0       150.0       150.0       150.0       150.0       150.0    
        150.0       150.0       150.0       150.0       150.0       150.0    
   9    150.0       150.0       150.0       150.0       150.0       150.0       150.0       150.0       150.0       150.0    
        150.0       150.0       150.0       150.0       150.0       150.0       150.0       150.0       150.0       150.0    
        150.0       150.0       150.0       150.0       150.0       150.0       150.0       150.0       150.0       150.0    
        150.0       150.0       150.0       150.0       150.0       150.0       150.0       150.0       150.0       150.0    
        150.0       150.0       150.0       150.0       150.0       150.0    
  10    150.0       150.0       150.0       150.0       150.0       150.0       150.0       150.0       150.0       150.0    
        150.0       150.0       150.0       150.0       150.0       150.0       150.0       150.0       150.0       150.0    
        150.0       150.0       150.0       150.0       150.0       150.0       150.0       150.0       150.0       150.0    
        150.0       150.0       150.0       150.0       150.0       150.0       150.0       150.0       150.0       150.0    
        150.0       150.0       150.0       150.0       150.0       150.0    
  11    150.0       150.0       150.0       150.0       150.0       150.0       150.0       150.0       150.0       150.0    
        150.0       150.0       150.0       150.0       150.0       150.0       150.0       150.0       150.0       150.0    
        150.0       150.0       150.0       150.0       150.0       150.0       150.0       150.0       150.0       150.0    
        150.0       150.0       150.0       150.0       150.0       150.0       150.0       150.0       150.0       150.0    
        150.0       150.0       150.0       150.0       150.0       150.0    
  12    150.0       150.0       150.0       150.0       150.0       150.0       150.0       150.0       150.0       150.0    
        150.0       150.0       150.0       150.0       150.0       150.0       150.0       150.0       150.0       150.0    
        150.0       150.0       150.0       150.0       150.0       150.0       150.0       150.0       150.0       150.0    
        150.0       150.0       150.0       150.0       150.0       150.0       150.0       150.0       150.0       150.0    
        150.0       150.0       150.0       150.0       150.0       150.0    
  13    150.0       150.0       150.0       150.0       150.0       150.0       150.0       150.0       150.0       150.0    
        150.0       150.0       150.0       150.0       150.0       150.0       150.0       150.0       150.0       150.0    
        150.0       150.0       150.0       150.0       150.0       150.0       150.0       150.0       150.0       150.0    
        150.0       150.0       150.0       150.0       150.0       150.0       150.0       150.0       150.0       150.0    
        150.0       150.0       150.0       150.0       150.0       150.0    
  14    150.0       150.0       150.0       150.0       150.0       150.0       150.0       150.0       150.0       150.0    
        150.0       150.0       150.0       150.0       150.0       150.0       150.0       150.0       150.0       150.0    
        150.0       150.0       150.0       150.0       150.0       150.0       150.0       150.0       150.0       150.0    
        150.0       150.0       150.0       150.0       150.0       150.0       150.0       150.0       150.0       150.0    
        150.0       150.0       150.0       150.0       150.0       150.0    
  15    150.0       150.0       150.0       150.0       150.0       150.0       150.0       150.0       150.0       150.0    
        150.0       150.0       150.0       150.0       150.0       150.0       150.0       150.0       150.0       150.0    
        150.0       150.0       150.0       150.0       150.0       150.0       150.0       150.0       150.0       150.0    
        150.0       150.0       150.0       150.0       150.0       150.0       150.0       150.0       150.0       150.0    
        150.0       150.0       150.0       150.0       150.0       150.0    
  16    150.0       150.0       150.0       150.0       150.0       150.0       150.0       150.0       150.0       150.0    
        150.0       150.0       150.0       150.0       150.0       150.0       150.0       150.0       150.0       150.0    
        150.0       150.0       150.0       150.0       150.0       150.0       150.0       150.0       150.0       150.0    
        150.0       150.0       150.0       150.0       150.0       150.0       150.0       150.0       150.0       150.0    
        150.0       150.0       150.0       150.0       150.0       150.0    
  17    150.0       150.0       150.0       150.0       150.0       150.0       150.0       150.0       150.0       150.0    
        150.0       150.0       150.0       150.0       150.0       150.0       150.0       150.0       150.0       150.0    
        150.0       150.0       150.0       150.0       150.0       150.0       150.0       150.0       150.0       150.0    
        150.0       150.0       150.0       150.0       150.0       150.0       150.0       150.0       150.0       150.0    
        150.0       150.0       150.0       150.0       150.0       150.0    
  18    150.0       150.0       150.0       150.0       150.0       150.0       150.0       150.0       150.0       150.0    
        150.0       150.0       150.0       150.0       150.0       150.0       150.0       150.0       150.0       150.0    
        150.0       150.0       150.0       150.0       150.0       150.0       150.0       150.0       150.0       150.0    
        150.0       150.0       150.0       150.0       150.0       150.0       150.0       150.0       150.0       150.0    
        150.0       150.0       150.0       150.0       150.0       150.0    
  19    150.0       150.0       150.0       150.0       150.0       150.0       150.0       150.0       150.0       150.0    
        150.0       150.0       150.0       150.0       150.0       150.0       150.0       150.0       150.0       150.0    
        150.0       150.0       150.0       150.0       150.0       150.0       150.0       150.0       150.0       150.0    
        150.0       150.0       150.0       150.0       150.0       150.0       150.0       150.0       150.0       150.0    
        150.0       150.0       150.0       150.0       150.0       150.0    
  20    150.0       150.0       150.0       150.0       150.0       150.0       150.0       150.0       150.0       150.0    
        150.0       150.0       150.0       150.0       150.0       150.0       150.0       150.0       150.0       150.0    
        150.0       150.0       150.0       150.0       150.0       150.0       150.0       150.0       150.0       150.0    
        150.0       150.0       150.0       150.0       150.0       150.0       150.0       150.0       150.0       150.0    
        150.0       150.0       150.0       150.0       150.0       150.0    
  21    150.0       150.0       150.0       150.0       150.0       150.0       150.0       150.0       150.0       150.0    
        150.0       150.0       150.0       150.0       150.0       150.0       150.0       150.0       150.0       150.0    
        150.0       150.0       150.0       150.0       150.0       150.0       150.0       150.0       150.0       150.0    
        150.0       150.0       150.0       150.0       150.0       150.0       150.0       150.0       150.0       150.0    
        150.0       150.0       150.0       150.0       150.0       150.0    
  22    150.0       150.0       150.0       150.0       150.0       150.0       150.0       150.0       150.0       150.0    
        150.0       150.0       150.0       150.0       150.0       150.0       150.0       150.0       150.0       150.0    
        150.0       150.0       150.0       150.0       150.0       150.0       150.0       150.0       150.0       150.0    
        150.0       150.0       150.0       150.0       150.0       150.0       150.0       150.0       150.0       150.0    
        150.0       150.0       150.0       150.0       150.0       150.0    
  23    150.0       150.0       150.0       150.0       150.0       150.0       150.0       150.0       150.0       150.0    
        150.0       150.0       150.0       150.0       150.0       150.0       150.0       150.0       150.0       150.0    
        150.0       150.0       150.0       150.0       150.0       150.0       150.0       150.0       150.0       150.0    
        150.0       150.0       150.0       150.0       150.0       150.0       150.0       150.0       150.0       150.0    
        150.0       150.0       150.0       150.0       150.0       150.0    
  24    150.0       150.0       150.0       150.0       150.0       150.0       150.0       150.0       150.0       150.0    
        150.0       150.0       150.0       150.0       150.0       150.0       150.0       150.0       150.0       150.0    
        150.0       150.0       150.0       150.0       150.0       150.0       150.0       150.0       150.0       150.0    
        150.0       150.0       150.0       150.0       150.0       150.0       150.0       150.0       150.0       150.0    
        150.0       150.0       150.0       150.0       150.0       150.0    
  25    150.0       150.0       150.0       150.0       150.0       150.0       150.0       150.0       150.0       150.0    
        150.0       150.0       150.0       150.0       150.0       150.0       150.0       150.0       150.0       150.0    
        150.0       150.0       150.0       150.0       150.0       150.0       150.0       150.0       150.0       150.0    
        150.0       150.0       150.0       150.0       150.0       150.0       150.0       150.0       150.0       150.0    
        150.0       150.0       150.0       150.0       150.0       150.0    
  26    150.0       150.0       150.0       150.0       150.0       150.0       150.0       150.0       150.0       150.0    
        150.0       150.0       150.0       150.0       150.0       150.0       150.0       150.0       150.0       150.0    
        150.0       150.0       150.0       150.0       150.0       150.0       150.0       150.0       150.0       150.0    
        150.0       150.0       150.0       150.0       150.0       150.0       150.0       150.0       150.0       150.0    
        150.0       150.0       150.0       150.0       150.0       150.0    
  27    150.0       150.0       150.0       150.0       150.0       150.0       150.0       150.0       150.0       150.0    
        150.0       150.0       150.0       150.0       150.0       150.0       150.0       150.0       150.0       150.0    
        150.0       150.0       150.0       150.0       150.0       150.0       150.0       150.0       150.0       150.0    
        150.0       150.0       150.0       150.0       150.0       150.0       150.0       150.0       150.0       150.0    
        150.0       150.0       150.0       150.0       150.0       150.0    
  28    150.0       150.0       150.0       150.0       150.0       150.0       150.0       150.0       150.0       150.0    
        150.0       150.0       150.0       150.0       150.0       150.0       150.0       150.0       150.0       150.0    
        150.0       150.0       150.0       150.0       150.0       150.0       150.0       150.0       150.0       150.0    
        150.0       150.0       150.0       150.0       150.0       150.0       150.0       150.0       150.0       150.0    
        150.0       150.0       150.0       150.0       150.0       150.0    
  29    150.0       150.0       150.0       150.0       150.0       150.0       150.0       150.0       150.0       150.0    
        150.0       150.0       150.0       150.0       150.0       150.0       150.0       150.0       150.0       150.0    
        150.0       150.0       150.0       150.0       150.0       150.0       150.0       150.0       150.0       150.0    
        150.0       150.0       150.0       150.0       150.0       150.0       150.0       150.0       150.0       150.0    
        150.0       150.0       150.0       150.0       150.0       150.0    
  30    150.0       150.0       150.0       150.0       150.0       150.0       150.0       150.0       150.0       150.0    
        150.0       150.0       150.0       150.0       150.0       150.0       150.0       150.0       150.0       150.0    
        150.0       150.0       150.0       150.0       150.0       150.0       150.0       150.0       150.0       150.0    
        150.0       150.0       150.0       150.0       150.0       150.0       150.0       150.0       150.0       150.0    
        150.0       150.0       150.0       150.0       150.0       150.0    
  31    150.0       150.0       150.0       150.0       150.0       150.0       150.0       150.0       150.0       150.0    
        150.0       150.0       150.0       150.0       150.0       150.0       150.0       150.0       150.0       150.0    
        150.0       150.0       150.0       150.0       150.0       150.0       150.0       150.0       150.0       150.0    
        150.0       150.0       150.0       150.0       150.0       150.0       150.0       150.0       150.0       150.0    
        150.0       150.0       150.0       150.0       150.0       150.0    
  32    150.0       150.0       150.0       150.0       150.0       150.0       150.0       150.0       150.0       150.0    
        150.0       150.0       150.0       150.0       150.0       150.0       150.0       150.0       150.0       150.0    
        150.0       150.0       150.0       150.0       150.0       150.0       150.0       150.0       150.0       150.0    
        150.0       150.0       150.0       150.0       150.0       150.0       150.0       150.0       150.0       150.0    
        150.0       150.0       150.0       150.0       150.0       150.0    
  33    150.0       150.0       150.0       150.0       150.0       150.0       150.0       150.0       150.0       150.0    
        150.0       150.0       150.0       150.0       150.0       150.0       150.0       150.0       150.0       150.0    
        150.0       150.0       150.0       150.0       150.0       150.0       150.0       150.0       150.0       150.0    
        150.0       150.0       150.0       150.0       150.0       150.0       150.0       150.0       150.0       150.0    
        150.0       150.0       150.0       150.0       150.0       150.0    
  34    150.0       150.0       150.0       150.0       150.0       150.0       150.0       150.0       150.0       150.0    
        150.0       150.0       150.0       150.0       150.0       150.0       150.0       150.0       150.0       150.0    
        150.0       150.0       150.0       150.0       150.0       150.0       150.0       150.0       150.0       150.0    
        150.0       150.0       150.0       150.0       150.0       150.0       150.0       150.0       150.0       150.0    
        150.0       150.0       150.0       150.0       150.0       150.0    
  35    150.0       150.0       150.0       150.0       150.0       150.0       150.0       150.0       150.0       150.0    
        150.0       150.0       150.0       150.0       150.0       150.0       150.0       150.0       150.0       150.0    
        150.0       150.0       150.0       150.0       150.0       150.0       150.0       150.0       150.0       150.0    
        150.0       150.0       150.0       150.0       150.0       150.0       150.0       150.0       150.0       150.0    
        150.0       150.0       150.0       150.0       150.0       150.0    
  36    150.0       150.0       150.0       150.0       150.0       150.0       150.0       150.0       150.0       150.0    
        150.0       150.0       150.0       150.0       150.0       150.0       150.0       150.0       150.0       150.0    
        150.0       150.0       150.0       150.0       150.0       150.0       150.0       150.0       150.0       150.0    
        150.0       150.0       150.0       150.0       150.0       150.0       150.0       150.0       150.0       150.0    
        150.0       150.0       150.0       150.0       150.0       150.0    
  37    150.0       150.0       150.0       150.0       150.0       150.0       150.0       150.0       150.0       150.0    
        150.0       150.0       150.0       150.0       150.0       150.0       150.0       150.0       150.0       150.0    
        150.0       150.0       150.0       150.0       150.0       150.0       150.0       150.0       150.0       150.0    
        150.0       150.0       150.0       150.0       150.0       150.0       150.0       150.0       150.0       150.0    
        150.0       150.0       150.0       150.0       150.0       150.0    
  38    150.0       150.0       150.0       150.0       150.0       150.0       150.0       150.0       150.0       150.0    
        150.0       150.0       150.0       150.0       150.0       150.0       150.0       150.0       150.0       150.0    
        150.0       150.0       150.0       150.0       150.0       150.0       150.0       150.0       150.0       150.0    
        150.0       150.0       150.0       150.0       150.0       150.0       150.0       150.0       150.0       150.0    
        150.0       150.0       150.0       150.0       150.0       150.0    
  39    150.0       150.0       150.0       150.0       150.0       150.0       150.0       150.0       150.0       150.0    
        150.0       150.0       150.0       150.0       150.0       150.0       150.0       150.0       150.0       150.0    
        150.0       150.0       150.0       150.0       150.0       150.0       150.0       150.0       150.0       150.0    
        150.0       150.0       150.0       150.0       150.0       150.0       150.0       150.0       150.0       150.0    
        150.0       150.0       150.0       150.0       150.0       150.0    
  40    150.0       150.0       150.0       150.0       150.0       150.0       150.0       150.0       150.0       150.0    
        150.0       150.0       150.0       150.0       150.0       150.0       150.0       150.0       150.0       150.0    
        150.0       150.0       150.0       150.0       150.0       150.0       150.0       150.0       150.0       150.0    
        150.0       150.0       150.0       150.0       150.0       150.0       150.0       150.0       150.0       150.0    
        150.0       150.0       150.0       150.0       150.0       150.0    
  41    150.0       150.0       150.0       150.0       150.0       150.0       150.0       150.0       150.0       150.0    
        150.0       150.0       150.0       150.0       150.0       150.0       150.0       150.0       150.0       150.0    
        150.0       150.0       150.0       150.0       150.0       150.0       150.0       150.0       150.0       150.0    
        150.0       150.0       150.0       150.0       150.0       150.0       150.0       150.0       150.0       150.0    
        150.0       150.0       150.0       150.0       150.0       150.0    
  42    150.0       150.0       150.0       150.0       150.0       150.0       150.0       150.0       150.0       150.0    
        150.0       150.0       150.0       150.0       150.0       150.0       150.0       150.0       150.0       150.0    
        150.0       150.0       150.0       150.0       150.0       150.0       150.0       150.0       150.0       150.0    
        150.0       150.0       150.0       150.0       150.0       150.0       150.0       150.0       150.0       150.0    
        150.0       150.0       150.0       150.0       150.0       150.0    
  43    150.0       150.0       150.0       150.0       150.0       150.0       150.0       150.0       150.0       150.0    
        150.0       150.0       150.0       150.0       150.0       150.0       150.0       150.0       150.0       150.0    
        150.0       150.0       150.0       150.0       150.0       150.0       150.0       150.0       150.0       150.0    
        150.0       150.0       150.0       150.0       150.0       150.0       150.0       150.0       150.0       150.0    
        150.0       150.0       150.0       150.0       150.0       150.0    
  44    150.0       150.0       150.0       150.0       150.0       150.0       150.0       150.0       150.0       150.0    
        150.0       150.0       150.0       150.0       150.0       150.0       150.0       150.0       150.0       150.0    
        150.0       150.0       150.0       150.0       150.0       150.0       150.0       150.0       150.0       150.0    
        150.0       150.0       150.0       150.0       150.0       150.0       150.0       150.0       150.0       150.0    
        150.0       150.0       150.0       150.0       150.0       150.0    
  45    150.0       150.0       150.0       150.0       150.0       150.0       150.0       150.0       150.0       150.0    
        150.0       150.0       150.0       150.0       150.0       150.0       150.0       150.0       150.0       150.0    
        150.0       150.0       150.0       150.0       150.0       150.0       150.0       150.0       150.0       150.0    
        150.0       150.0       150.0       150.0       150.0       150.0       150.0       150.0       150.0       150.0    
        150.0       150.0       150.0       150.0       150.0       150.0    
  46    150.0       150.0       150.0       150.0       150.0       150.0       150.0       150.0       150.0       150.0    
        150.0       150.0       150.0       150.0       150.0       150.0       150.0       150.0       150.0       150.0    
        150.0       150.0       150.0       150.0       150.0       150.0       150.0       150.0       150.0       150.0    
        150.0       150.0       150.0       150.0       150.0       150.0       150.0       150.0       150.0       150.0    
        150.0       150.0       150.0       150.0       150.0       150.0    

 DEFAULT OUTPUT CONTROL
 THE FOLLOWING OUTPUT COMES AT THE END OF EACH STRESS PERIOD:
 TOTAL VOLUMETRIC BUDGET
           HEAD

 BCF -- BLOCK-CENTERED FLOW PACKAGE, VERSION 7, 5/2/2005
         INPUT READ FROM UNIT 22
 STEADY-STATE SIMULATION
 HEAD AT CELLS THAT CONVERT TO DRY=   0.0000    
 WETTING CAPABILITY IS ACTIVE
 WETTING FACTOR=   1.00000     WETTING ITERATION INTERVAL=   1
 FLAG THAT SPECIFIES THE EQUATION TO USE FOR HEAD AT WETTED CELLS=   0
      LAYER  LAYER-TYPE CODE     INTERBLOCK T
      --------------------------------------------
         1            0          0 -- HARMONIC    

 COLUMN TO ROW ANISOTROPY =   1.00000    

     TRANSMIS. ALONG ROWS =   8000.00     FOR LAYER   1

 RCH -- RECHARGE PACKAGE, VERSION 7, 5/2/2005 INPUT READ FROM UNIT   25
 #SUP3G Sample Problem, child RECH file
     1 Named Parameters     
 OPTION 1 -- RECHARGE TO TOP LAYER


     1 Recharge parameters

 PARAMETER NAME:REC-CHD      TYPE:RCH    CLUSTERS:   1
 Parameter value from package file is:   1.00000E-03
                MULTIPLIER ARRAY: NONE    ZONE ARRAY: ALL
1
                            STRESS PERIOD NO.    1, LENGTH =   1000.000    
                            -----------------------------------------------

                              NUMBER OF TIME STEPS =     1

                               MULTIPLIER FOR DELT =     1.000

                            INITIAL TIME STEP SIZE =   1000.000    



 RECH array defined by the following parameters:
 Parameter:  REC-CHD

                 RECHARGE =  1.000000E-03
 
 SOLVING FOR HEAD 


     2 CALLS TO PCG ROUTINE FOR TIME STEP   1 IN STRESS PERIOD    1
     3 TOTAL ITERATIONS


     5 CALLS TO PCG ROUTINE FOR TIME STEP   1 IN STRESS PERIOD    1
    41 TOTAL ITERATIONS


     2 CALLS TO PCG ROUTINE FOR TIME STEP   1 IN STRESS PERIOD    1
     3 TOTAL ITERATIONS


     5 CALLS TO PCG ROUTINE FOR TIME STEP   1 IN STRESS PERIOD    1
    39 TOTAL ITERATIONS


     2 CALLS TO PCG ROUTINE FOR TIME STEP   1 IN STRESS PERIOD    1
     3 TOTAL ITERATIONS


     5 CALLS TO PCG ROUTINE FOR TIME STEP   1 IN STRESS PERIOD    1
    37 TOTAL ITERATIONS


     2 CALLS TO PCG ROUTINE FOR TIME STEP   1 IN STRESS PERIOD    1
     3 TOTAL ITERATIONS


     5 CALLS TO PCG ROUTINE FOR TIME STEP   1 IN STRESS PERIOD    1
    35 TOTAL ITERATIONS


     2 CALLS TO PCG ROUTINE FOR TIME STEP   1 IN STRESS PERIOD    1
     3 TOTAL ITERATIONS


     5 CALLS TO PCG ROUTINE FOR TIME STEP   1 IN STRESS PERIOD    1
    35 TOTAL ITERATIONS


     2 CALLS TO PCG ROUTINE FOR TIME STEP   1 IN STRESS PERIOD    1
     3 TOTAL ITERATIONS


     5 CALLS TO PCG ROUTINE FOR TIME STEP   1 IN STRESS PERIOD    1
    34 TOTAL ITERATIONS


     2 CALLS TO PCG ROUTINE FOR TIME STEP   1 IN STRESS PERIOD    1
     3 TOTAL ITERATIONS


     4 CALLS TO PCG ROUTINE FOR TIME STEP   1 IN STRESS PERIOD    1
    30 TOTAL ITERATIONS


     2 CALLS TO PCG ROUTINE FOR TIME STEP   1 IN STRESS PERIOD    1
     3 TOTAL ITERATIONS


     4 CALLS TO PCG ROUTINE FOR TIME STEP   1 IN STRESS PERIOD    1
    30 TOTAL ITERATIONS


     2 CALLS TO PCG ROUTINE FOR TIME STEP   1 IN STRESS PERIOD    1
     3 TOTAL ITERATIONS


     4 CALLS TO PCG ROUTINE FOR TIME STEP   1 IN STRESS PERIOD    1
    29 TOTAL ITERATIONS


     2 CALLS TO PCG ROUTINE FOR TIME STEP   1 IN STRESS PERIOD    1
     3 TOTAL ITERATIONS


     4 CALLS TO PCG ROUTINE FOR TIME STEP   1 IN STRESS PERIOD    1
    27 TOTAL ITERATIONS


     2 CALLS TO PCG ROUTINE FOR TIME STEP   1 IN STRESS PERIOD    1
     3 TOTAL ITERATIONS


     4 CALLS TO PCG ROUTINE FOR TIME STEP   1 IN STRESS PERIOD    1
    26 TOTAL ITERATIONS


     2 CALLS TO PCG ROUTINE FOR TIME STEP   1 IN STRESS PERIOD    1
     3 TOTAL ITERATIONS


     4 CALLS TO PCG ROUTINE FOR TIME STEP   1 IN STRESS PERIOD    1
    25 TOTAL ITERATIONS


     2 CALLS TO PCG ROUTINE FOR TIME STEP   1 IN STRESS PERIOD    1
     3 TOTAL ITERATIONS


     4 CALLS TO PCG ROUTINE FOR TIME STEP   1 IN STRESS PERIOD    1
    25 TOTAL ITERATIONS


     2 CALLS TO PCG ROUTINE FOR TIME STEP   1 IN STRESS PERIOD    1
     3 TOTAL ITERATIONS


     4 CALLS TO PCG ROUTINE FOR TIME STEP   1 IN STRESS PERIOD    1
    23 TOTAL ITERATIONS


     2 CALLS TO PCG ROUTINE FOR TIME STEP   1 IN STRESS PERIOD    1
     3 TOTAL ITERATIONS


     3 CALLS TO PCG ROUTINE FOR TIME STEP   1 IN STRESS PERIOD    1
    21 TOTAL ITERATIONS


     2 CALLS TO PCG ROUTINE FOR TIME STEP   1 IN STRESS PERIOD    1
     3 TOTAL ITERATIONS


     3 CALLS TO PCG ROUTINE FOR TIME STEP   1 IN STRESS PERIOD    1
    20 TOTAL ITERATIONS


     2 CALLS TO PCG ROUTINE FOR TIME STEP   1 IN STRESS PERIOD    1
     3 TOTAL ITERATIONS


     3 CALLS TO PCG ROUTINE FOR TIME STEP   1 IN STRESS PERIOD    1
    20 TOTAL ITERATIONS


     2 CALLS TO PCG ROUTINE FOR TIME STEP   1 IN STRESS PERIOD    1
     3 TOTAL ITERATIONS


     3 CALLS TO PCG ROUTINE FOR TIME STEP   1 IN STRESS PERIOD    1
    18 TOTAL ITERATIONS


     2 CALLS TO PCG ROUTINE FOR TIME STEP   1 IN STRESS PERIOD    1
     3 TOTAL ITERATIONS


     3 CALLS TO PCG ROUTINE FOR TIME STEP   1 IN STRESS PERIOD    1
    17 TOTAL ITERATIONS


     2 CALLS TO PCG ROUTINE FOR TIME STEP   1 IN STRESS PERIOD    1
     3 TOTAL ITERATIONS


     3 CALLS TO PCG ROUTINE FOR TIME STEP   1 IN STRESS PERIOD    1
    16 TOTAL ITERATIONS


     2 CALLS TO PCG ROUTINE FOR TIME STEP   1 IN STRESS PERIOD    1
     3 TOTAL ITERATIONS


     3 CALLS TO PCG ROUTINE FOR TIME STEP   1 IN STRESS PERIOD    1
    15 TOTAL ITERATIONS


     2 CALLS TO PCG ROUTINE FOR TIME STEP   1 IN STRESS PERIOD    1
     3 TOTAL ITERATIONS


     3 CALLS TO PCG ROUTINE FOR TIME STEP   1 IN STRESS PERIOD    1
    14 TOTAL ITERATIONS
1
              HEAD IN LAYER   1 AT END OF TIME STEP   1 IN STRESS PERIOD    1
  ---------------------------------------------------------------------------

            1           2           3           4           5           6           7           8           9          10
           11          12          13          14          15          16          17          18          19          20
           21          22          23          24          25          26          27          28          29          30
           31          32          33          34          35          36          37          38          39          40
           41          42          43          44          45          46
 ........................................................................................................................
   1    148.7       148.7       148.6       148.5       148.4       148.3       148.5       148.6       148.7       148.8    
        148.9       149.4       149.9       150.5       150.9       151.4       152.3       153.1       153.9       154.7    
        155.5       156.4       157.3       158.2       159.1       160.0       160.9       161.8       162.8       163.6    
        164.5       165.4       166.3       167.2       168.1       169.0       169.8       170.7       171.6       172.4    
        173.3       174.1       174.9       175.8       176.6       177.4    
   2    148.3       148.2       148.0       147.9       147.8       147.7       147.6       147.7       147.7       147.8    
        148.0       148.4       148.9       149.4       150.0       150.6       151.4       152.3       153.1       154.0    
        154.9       155.8       156.8       157.7       158.7       159.6       160.6       161.5       162.4       163.4    
        164.3       165.2       166.1       167.0       167.9       168.8       169.7       170.5       171.4       172.3    
        173.1       174.0       174.8       175.7       176.5       177.3    
   3    147.9       147.7       147.5       147.3       147.1       146.9       146.8       146.7       146.7       146.8    
        146.9       147.3       147.7       148.3       148.9       149.7       150.5       151.4       152.4       153.3    
        154.3       155.3       156.3       157.3       158.2       159.2       160.2       161.2       162.1       163.1    
        164.0       164.9       165.9       166.8       167.7       168.6       169.5       170.4       171.3       172.1    
        173.0       173.9       174.7       175.6       176.4       177.2    
   4    147.4       147.2       146.9       146.6       146.3       146.1       145.9       145.7       145.6       145.6    
        145.7       146.0       146.5       147.1       147.8       148.7       149.6       150.6       151.6       152.6    
        153.7       154.7       155.8       156.8       157.8       158.8       159.8       160.8       161.8       162.8    
        163.7       164.7       165.6       166.6       167.5       168.4       169.3       170.2       171.1       172.0    
        172.9       173.7       174.6       175.5       176.3       177.2    
   5    147.0       146.7       146.3       146.0       145.6       145.2       144.9       144.6       144.4       144.3    
        144.3       144.6       145.1       145.7       146.6       147.5       148.6       149.7       150.8       151.9    
        153.0       154.1       155.2       156.3       157.4       158.4       159.5       160.5       161.5       162.5    
        163.5       164.5       165.4       166.4       167.3       168.2       169.1       170.1       171.0       171.9    
        172.7       173.6       174.5       175.4       176.2       177.1    
   6    146.5       146.2       145.8       145.3       144.8       144.3       143.9       143.4       143.0       142.8    
        142.7       143.0       143.5       144.2       145.2       146.3       147.5       148.7       150.0       151.2    
        152.4       153.6       154.7       155.9       157.0       158.1       159.1       160.2       161.2       162.2    
        163.2       164.2       165.2       166.2       167.1       168.0       169.0       169.9       170.8       171.7    
        172.6       173.5       174.4       175.3       176.1       177.0    
   7    146.2       145.8       145.2       144.7       144.1       143.4       142.8       142.1       141.5       141.1    
        140.9       141.0       141.6       142.5       143.7       145.0       146.4       147.8       149.1       150.5    
        151.8       153.0       154.2       155.4       156.6       157.7       158.8       159.9       160.9       162.0    
        163.0       164.0       165.0       166.0       166.9       167.9       168.8       169.8       170.7       171.6    
        172.5       173.4       174.3       175.2       176.0       176.9    
   8    145.9       145.4       144.7       144.1       143.4       142.6       141.7       140.8       139.9       139.1    
        138.6       138.6       139.3       140.6       142.0       143.6       145.3       146.8       148.3       149.8    
        151.2       152.5       153.8       155.0       156.2       157.3       158.5       159.6       160.6       161.7    
        162.7       163.8       164.8       165.8       166.7       167.7       168.7       169.6       170.5       171.5    
        172.4       173.3       174.2       175.1       176.0       176.8    
   9    145.6       145.0       144.3       143.6       142.7       141.8       140.7       139.5       138.2       136.9    
        135.9       135.6       136.6       138.3       140.3       142.3       144.2       146.0       147.6       149.2    
        150.6       152.0       153.4       154.6       155.8       157.0       158.2       159.3       160.4       161.5    
        162.5       163.6       164.6       165.6       166.6       167.5       168.5       169.5       170.4       171.3    
        172.3       173.2       174.1       175.0       175.9       176.8    
  10    145.3       144.6       143.9       143.1       142.2       141.1       139.8       138.2       136.4       134.4    
        132.4       131.3       133.1       135.8       138.5       141.0       143.2       145.2       147.0       148.6    
        150.2       151.6       153.0       154.3       155.5       156.7       157.9       159.0       160.2       161.2    
        162.3       163.4       164.4       165.4       166.4       167.4       168.4       169.3       170.3       171.2    
        172.2       173.1       174.0       174.9       175.8       176.7    
  11    145.0       144.4       143.6       142.8       141.8       140.5       139.1       137.3       134.9       131.9    
        128.0       124.0       128.6       133.2       137.0       140.0       142.4       144.6       146.5       148.2    
        149.8       151.3       152.7       154.0       155.3       156.5       157.7       158.8       159.9       161.0    
        162.1       163.2       164.2       165.2       166.2       167.2       168.2       169.2       170.2       171.1    
        172.1       173.0       173.9       174.8       175.7       176.6    
  12    145.0       144.3       143.5       142.6       141.5       140.3       138.7       136.8       134.2       130.3    
        123.5       108.2       124.2       131.6       136.1       139.4       142.0       144.2       146.2       147.9    
        149.5       151.0       152.4       153.7       155.0       156.3       157.4       158.6       159.7       160.8    
        161.9       163.0       164.0       165.1       166.1       167.1       168.1       169.1       170.0       171.0    
        172.0       172.9       173.8       174.7       175.6       176.5    
  13    145.0       144.3       143.5       142.6       141.5       140.3       138.8       137.0       134.6       131.6    
        127.6       123.7       128.3       132.9       136.6       139.5       142.0       144.2       146.1       147.8    
        149.4       150.8       152.2       153.6       154.8       156.1       157.3       158.4       159.5       160.7    
        161.8       162.8       163.9       164.9       166.0       167.0       168.0       169.0       169.9       170.9    
        171.9       172.8       173.7       174.7       175.6       176.5    
  14    145.0       144.3       143.5       142.7       141.7       140.5       139.2       137.7       135.8       133.8    
        131.7       130.5       132.3       135.0       137.7       140.2       142.4       144.3       146.1       147.8    
        149.3       150.7       152.1       153.4       154.7       155.9       157.1       158.3       159.4       160.5    
        161.6       162.7       163.7       164.8       165.8       166.8       167.9       168.8       169.8       170.8    
        171.8       172.7       173.7       174.6       175.5       176.4    
  15    145.0       144.4       143.7       142.9       142.0       141.0       139.8       138.6       137.3       135.9    
        134.8       134.5       135.4       137.1       139.1       141.0       142.9       144.7       146.3       147.9    
        149.3       150.7       152.0       153.3       154.6       155.8       157.0       158.1       159.2       160.4    
        161.4       162.5       163.6       164.7       165.7       166.7       167.7       168.7       169.7       170.7    
        171.7       172.6       173.6       174.5       175.5       176.4    
  16    145.0       144.5       143.9       143.2       142.4       141.5       140.6       139.6       138.7       137.8    
        137.2       137.2       137.8       139.0       140.4       142.0       143.6       145.1       146.6       148.0    
        149.4       150.7       152.0       153.3       154.5       155.7       156.8       158.0       159.1       160.2    
        161.3       162.4       163.5       164.5       165.6       166.6       167.6       168.6       169.6       170.6    
        171.6       172.6       173.5       174.5       175.4       176.3    
  17    145.3       144.8       144.2       143.5       142.9       142.1       141.4       140.7       140.0       139.4    
        139.1       139.2       139.7       140.6       141.7       142.9       144.3       145.6       146.9       148.2    
        149.5       150.8       152.0       153.2       154.4       155.6       156.7       157.9       159.0       160.1    
        161.2       162.3       163.4       164.4       165.5       166.5       167.5       168.6       169.6       170.6    
        171.5       172.5       173.5       174.4       175.4       176.3    
  18    145.5       145.0       144.5       144.0       143.4       142.8       142.2       141.6       141.1       140.8    
        140.6       140.8       141.2       141.9       142.8       143.8       144.9       146.1       147.3       148.5    
        149.7       150.9       152.0       153.2       154.4       155.5       156.6       157.8       158.9       160.0    
        161.1       162.2       163.2       164.3       165.4       166.4       167.4       168.5       169.5       170.5    
        171.5       172.5       173.4       174.4       175.3       176.3    
  19    145.8       145.3       144.9       144.4       143.9       143.4       142.9       142.5       142.2       141.9    
        141.9       142.0       142.4       143.0       143.7       144.6       145.5       146.6       147.6       148.7    
        149.8       151.0       152.1       153.2       154.3       155.4       156.5       157.6       158.8       159.9    
        161.0       162.0       163.1       164.2       165.3       166.3       167.4       168.4       169.4       170.4    
        171.4       172.4       173.4       174.4       175.3       176.3    
  20    146.0       145.6       145.2       144.8       144.4       144.0       143.6       143.3       143.1       142.9    
        142.9       143.1       143.4       143.9       144.5       145.2       146.1       147.0       148.0       149.0    
        150.0       151.0       152.1       153.2       154.3       155.3       156.4       157.5       158.6       159.7    
        160.8       161.9       163.0       164.1       165.2       166.2       167.3       168.3       169.4       170.4    
        171.4       172.4       173.4       174.3       175.3       176.2    
  21    146.3       146.0       145.6       145.3       144.9       144.6       144.3       144.0       143.9       143.8    
        143.8       143.9       144.2       144.6       145.2       145.8       146.6       147.4       148.2       149.1    
        150.1       151.1       152.1       153.1       154.2       155.3       156.3       157.4       158.5       159.6    
        160.7       161.8       162.9       164.0       165.1       166.2       167.2       168.3       169.3       170.3    
        171.3       172.3       173.3       174.3       175.3       176.2    
  22    146.6       146.3       146.0       145.7       145.4       145.1       144.9       144.7       144.5       144.5    
        144.5       144.7       144.9       145.3       145.7       146.3       147.0       147.7       148.5       149.3    
        150.2       151.1       152.1       153.1       154.1       155.2       156.2       157.3       158.4       159.5    
        160.6       161.7       162.8       163.9       165.0       166.1       167.1       168.2       169.2       170.3    
        171.3       172.3       173.3       174.3       175.3       176.2    
  23    146.9       146.6       146.4       146.1       145.8       145.6       145.4       145.3       145.1       145.1    
        145.1       145.3       145.5       145.8       146.2       146.7       147.3       147.9       148.6       149.4    
        150.2       151.1       152.0       153.0       154.0       155.0       156.1       157.2       158.3       159.4    
        160.5       161.6       162.7       163.8       164.9       166.0       167.1       168.1       169.2       170.2    
        171.3       172.3       173.3       174.3       175.3       176.2    
  24    147.2       147.0       146.7       146.5       146.3       146.1       145.9       145.8       145.7       145.6    
        145.7       145.8       146.0       146.2       146.6       147.0       147.5       148.1       148.7       149.4    
        150.2       151.0       151.9       152.9       153.8       154.9       155.9       157.0       158.1       159.2    
        160.4       161.5       162.6       163.7       164.8       165.9       167.0       168.1       169.2       170.2    
        171.3       172.3       173.3       174.3       175.3       176.2    
  25    147.5       147.3       147.1       146.9       146.7       146.5       146.3       146.2       146.2       146.1    
        146.1       146.2       146.4       146.6       146.9       147.2       147.7       148.2       148.7       149.4    
        150.1       150.9       151.8       152.7       153.7       154.7       155.7       156.8       158.0       159.1    
        160.2       161.4       162.5       163.6       164.8       165.9       167.0       168.1       169.1       170.2    
        171.2       172.3       173.3       174.3       175.3       176.3    
  26    147.8       147.6       147.4       147.2       147.1       146.9       146.8       146.6       146.6       146.5    
        146.5       146.6       146.7       146.9       147.1       147.4       147.7       148.2       148.7       149.3    
        149.9       150.7       151.5       152.4       153.4       154.4       155.5       156.6       157.8       158.9    
        160.1       161.2       162.4       163.6       164.7       165.8       166.9       168.0       169.1       170.2    
        171.3       172.3       173.3       174.3       175.3       176.2    
  27    148.1       147.9       147.7       147.6       147.4       147.3       147.1       147.0       146.9       146.9    
        146.9       146.9       147.0       147.1       147.2       147.5       147.8       148.1       148.5       149.1    
        149.7       150.4       151.2       152.1       153.1       154.1       155.2       156.4       157.6       158.7    
        159.9       161.1       162.3       163.5       164.6       165.8       166.9       168.0       169.1       170.2    
        171.3       172.3       173.3       174.3       175.3       176.3    
  28    148.4       148.2       148.1       147.9       147.8       147.6       147.5       147.4       147.3       147.2    
        147.2       147.2       147.2       147.2       147.3       147.5       147.7       148.0       148.3       148.8    
        149.3       150.0       150.8       151.7       152.7       153.8       154.9       156.1       157.3       158.5    
        159.8       161.0       162.2       163.4       164.6       165.7       166.9       168.0       169.1       170.2    
        171.3       172.3       173.4       174.4       175.4       176.4    
  29    148.7       148.5       148.4       148.2       148.1       148.0       147.8       147.7       147.6       147.5    
        147.4       147.4       147.3       147.3       147.4       147.4       147.5       147.7       148.0       148.4    
        148.9       149.5       150.3       151.2       152.3       153.4       154.6       155.8       157.1       158.3    
        159.6       160.9       162.1       163.3       164.5       165.7       166.9       168.0       169.2       170.2    
        171.3       172.4       173.4       174.5       175.5       176.5    
  30    149.0       148.8       148.7       148.6       148.4       148.3       148.1       148.0       147.9       147.8    
        147.7       147.6       147.5       147.4       147.3       147.3       147.3       147.4       147.5       147.8    
        148.2       148.8       149.6       150.6       151.7       152.9       154.2       155.5       156.8       158.1    
        159.5       160.8       162.0       163.3       164.5       165.7       166.9       168.1       169.2       170.3    
        171.4       172.4       173.5       174.5       175.5       176.5    
  31    149.2       149.1       149.0       148.9       148.7       148.6       148.5       148.3       148.2       148.0    
        147.9       147.7       147.6       147.4       147.3       147.2       147.0       147.0       147.0       147.1    
        147.4       148.0       148.8       149.8       151.0       152.3       153.7       155.1       156.6       158.0    
        159.3       160.7       162.0       163.3       164.5       165.7       166.9       168.1       169.2       170.4    
        171.4       172.5       173.6       174.6       175.6       176.6    
  32    149.5       149.4       149.3       149.2       149.0       148.9       148.8       148.6       148.5       148.3    
        148.1       147.9       147.7       147.5       147.2       147.0       146.7       146.5       146.3       146.2    
        146.4       146.9       147.7       148.9       150.2       151.7       153.3       154.8       156.3       157.8    
        159.2       160.6       162.0       163.3       164.5       165.8       167.0       168.2       169.3       170.4    
        171.5       172.6       173.7       174.7       175.7       176.7    
  33    149.8       149.7       149.6       149.5       149.4       149.2       149.1       148.9       148.7       148.5    
        148.3       148.1       147.8       147.5       147.2       146.8       146.4       145.9       145.5       145.1    
        145.0       145.4       146.3       147.7       149.3       151.0       152.8       154.4       156.1       157.6    
        159.1       160.6       162.0       163.3       164.6       165.9       167.1       168.3       169.4       170.5    
        171.6       172.7       173.8       174.8       175.8       176.8    
  34    150.1       150.0       149.9       149.8       149.7       149.5       149.4       149.2       149.0       148.8    
        148.6       148.3       148.0       147.6       147.2       146.6       146.0       145.3       144.5       143.8    
        143.2       143.3       144.5       146.3       148.3       150.4       152.3       154.2       155.9       157.5    
        159.1       160.6       162.0       163.4       164.7       166.0       167.2       168.4       169.5       170.7    
        171.8       172.8       173.9       174.9       175.9       177.0    
  35    150.4       150.3       150.2       150.1       150.0       149.9       149.7       149.5       149.3       149.1    
        148.9       148.5       148.2       147.7       147.2       146.6       145.8       144.8       143.6       142.2    
        140.8       140.1       142.0       144.7       147.3       149.8       152.0       154.0       155.8       157.5    
        159.2       160.7       162.1       163.5       164.8       166.1       167.3       168.5       169.7       170.8    
        171.9       173.0       174.0       175.1       176.1       177.1    
  36    150.7       150.6       150.5       150.4       150.3       150.2       150.0       149.9       149.7       149.4    
        149.2       148.8       148.5       148.0       147.4       146.7       145.7       144.5       142.8       140.5    
        137.5       134.5       138.7       143.0       146.5       149.4       151.8       154.0       155.9       157.6    
        159.3       160.8       162.3       163.7       165.0       166.3       167.5       168.7       169.8       171.0    
        172.1       173.1       174.2       175.2       176.2       177.2    
  37    151.0       150.9       150.9       150.8       150.7       150.5       150.4       150.2       150.0       149.8    
        149.5       149.2       148.8       148.3       147.7       146.9       145.9       144.6       142.7       139.7    
        134.3       121.6       135.5       142.1       146.3       149.4       152.0       154.1       156.1       157.9    
        159.5       161.0       162.5       163.9       165.2       166.5       167.7       168.9       170.0       171.2    
        172.3       173.3       174.4       175.4       176.4       177.4    
  38    151.3       151.3       151.2       151.1       151.0       150.9       150.8       150.6       150.4       150.2    
        150.0       149.6       149.3       148.8       148.2       147.4       146.5       145.2       143.6       141.3    
        138.3       135.2       139.5       143.7       147.2       150.0       152.4       154.6       156.5       158.2    
        159.8       161.3       162.8       164.2       165.5       166.7       167.9       169.1       170.3       171.4    
        172.5       173.5       174.6       175.6       176.6       177.6    
  39    151.6       151.6       151.5       151.5       151.4       151.3       151.2       151.0       150.9       150.7    
        150.4       150.1       149.8       149.3       148.8       148.2       147.3       146.3       145.1       143.7    
        142.2       141.6       143.4       146.0       148.6       151.1       153.2       155.2       157.0       158.7    
        160.3       161.7       163.1       164.5       165.8       167.0       168.2       169.4       170.5       171.6    
        172.7       173.7       174.8       175.8       176.8       177.8    
  40    151.9       151.9       151.9       151.8       151.8       151.7       151.6       151.5       151.3       151.2    
        150.9       150.7       150.4       150.0       149.5       149.0       148.4       147.6       146.8       146.0    
        145.4       145.5       146.6       148.4       150.3       152.3       154.2       156.0       157.7       159.3    
        160.8       162.2       163.5       164.9       166.1       167.3       168.5       169.7       170.8       171.9    
        172.9       174.0       175.0       176.0       177.0       177.9    
  41    152.2       152.2       152.2       152.2       152.2       152.1       152.0       151.9       151.8       151.7    
        151.5       151.3       151.0       150.7       150.4       150.0       149.5       149.0       148.5       148.2    
        148.0       148.3       149.2       150.5       152.0       153.6       155.3       156.9       158.4       159.9    
        161.3       162.7       164.0       165.3       166.5       167.7       168.9       170.0       171.1       172.2    
        173.2       174.2       175.2       176.2       177.2       178.1    
  42    152.6       152.6       152.6       152.6       152.6       152.5       152.5       152.4       152.3       152.2    
        152.1       151.9       151.7       151.5       151.2       151.0       150.7       150.4       150.2       150.0    
        150.1       150.5       151.3       152.3       153.6       155.0       156.4       157.8       159.2       160.6    
        161.9       163.2       164.5       165.7       166.9       168.1       169.2       170.3       171.4       172.5    
        173.5       174.5       175.5       176.5       177.4       178.4    
  43    152.9       153.0       153.0       153.0       153.0       153.0       152.9       152.9       152.8       152.8    
        152.7       152.6       152.4       152.3       152.1       152.0       151.8       151.7       151.6       151.7    
        151.9       152.4       153.1       154.0       155.1       156.3       157.5       158.8       160.1       161.4    
        162.6       163.8       165.0       166.2       167.4       168.5       169.6       170.7       171.7       172.8    
        173.8       174.8       175.8       176.7       177.7       178.6    
  44    153.3       153.3       153.3       153.4       153.4       153.4       153.4       153.4       153.4       153.3    
        153.3       153.2       153.2       153.1       153.0       153.0       152.9       153.0       153.0       153.2    
        153.5       154.0       154.7       155.5       156.4       157.5       158.6       159.7       160.9       162.1    
        163.3       164.4       165.6       166.7       167.8       168.9       170.0       171.0       172.1       173.1    
        174.1       175.1       176.0       177.0       177.9       178.9    
  45    153.6       153.7       153.7       153.8       153.8       153.8       153.9       153.9       153.9       153.9    
        153.9       153.9       153.9       153.9       153.9       153.9       154.0       154.1       154.3       154.5    
        154.9       155.4       156.1       156.9       157.7       158.6       159.6       160.7       161.8       162.9    
        164.0       165.1       166.2       167.2       168.3       169.4       170.4       171.4       172.4       173.4    
        174.4       175.4       176.3       177.3       178.2       179.1    
  46    153.9       154.0       154.1       154.2       154.2       154.3       154.4       154.4       154.5       154.5    
        154.5       154.6       154.7       154.7       154.7       154.8       155.0       155.3       155.5       155.8    
        156.0       156.7       157.4       158.2       158.9       159.5       160.6       161.6       162.6       163.6    
        164.6       165.7       166.7       167.8       168.8       169.8       170.8       171.8       172.8       173.8    
        174.8       175.7       176.6       177.5       178.4       179.3    
1
  VOLUMETRIC BUDGET FOR ENTIRE MODEL AT END OF TIME STEP  1 IN STRESS PERIOD   1
  ------------------------------------------------------------------------------

     CUMULATIVE VOLUMES      L**3       RATES FOR THIS TIME STEP      L**3/T
     ------------------                 ------------------------

           IN:                                      IN:
           ---                                      ---
             STORAGE =           0.0000               STORAGE =           0.0000
       CONSTANT HEAD =   849401215.0498         CONSTANT HEAD =      849401.2150
            RECHARGE =    77440000.0000              RECHARGE =       77440.0000
        MANAGED FLOW =           0.0000          MANAGED FLOW =           0.0000

            TOTAL IN =   926841215.0498              TOTAL IN =      926841.2150

          OUT:                                     OUT:
          ----                                     ----
             STORAGE =           0.0000               STORAGE =           0.0000
       CONSTANT HEAD =     1148650.5121         CONSTANT HEAD =        1148.6505
            RECHARGE =           0.0000              RECHARGE =           0.0000
        MANAGED FLOW =   925692564.6023          MANAGED FLOW =      925692.5646

           TOTAL OUT =   926841215.1144             TOTAL OUT =      926841.2151

            IN - OUT =      -6.4677E-02              IN - OUT =      -6.4677E-05

 PERCENT DISCREPANCY =           0.00     PERCENT DISCREPANCY =           0.00






          TIME SUMMARY AT END OF TIME STEP   1 IN STRESS PERIOD    1
                    SECONDS     MINUTES      HOURS       DAYS        YEARS
                    -----------------------------------------------------------
   TIME STEP LENGTH 8.64000E+07 1.44000E+06  24000.      1000.0      2.7379    
 STRESS PERIOD TIME 8.64000E+07 1.44000E+06  24000.      1000.0      2.7379    
         TOTAL TIME 8.64000E+07 1.44000E+06  24000.      1000.0      2.7379    
1
1
  FLUX ACROSS PARENT-CHILD INTERFACE AT TIME STEP  1 IN STRESS PERIOD    1
  ------------------------------------------------------------------------

     CUMULATIVE VOLUMES      L**3       RATES FOR THIS TIME STEP      L**3/T
     ------------------                 ------------------------

   TOTAL IN TO CHILD =   848252564.4885     TOTAL IN TO CHILD =      848252.5645

 TOTAL OUT TO PARENT =           0.0000   TOTAL OUT TO PARENT =           0.0000

