                                  MODFLOW-LGR2     
      U.S. GEOLOGICAL SURVEY MODULAR FINITE-DIFFERENCE GROUNDWATER FLOW MODEL
                 VERSION GWM-2005 1.5.1 081214,FROM MF-LGR V2.0


     FINAL FLOW PROCESS SIMULATION FOR GWM                                                                                                                                                                   


 REWOUND ..\data\SUPPLY-3GRID\sup3g_c1.ba6
 FILE TYPE:BAS6   UNIT   21

 REWOUND ..\data\SUPPLY-3GRID\sup3g_c1.bc6
 FILE TYPE:BCF6   UNIT   22

 REWOUND ..\data\SUPPLY-3GRID\sup3g_c1.dis
 FILE TYPE:DIS   UNIT   23

 REWOUND ..\data\SUPPLY-3GRID\sup3g_chd.pcg
 FILE TYPE:PCG   UNIT   24

 REWOUND ..\data\SUPPLY-3GRID\sup3g_chd.rch
 FILE TYPE:RCH   UNIT   25

 REWOUND ..\data\SUPPLY-3GRID\sup3g_c1.gwm
 FILE TYPE:GWM   UNIT   26

 BAS -- BASIC PACKAGE, VERSION 7, 5/2/2005 INPUT READ FROM UNIT   21

 DISCRETIZATION INPUT DATA READ FROM UNIT   23
 #SUP3G Sample Problem, child #1 DIS file
    1 LAYERS        40 ROWS        40 COLUMNS
    1 STRESS PERIOD(S) IN SIMULATION
 MODEL TIME UNIT IS DAYS
 MODEL LENGTH UNIT IS UNDEFINED
  Confining bed flag for each layer:
   0

                     DELR =   200.000    

                     DELC =   200.000    

 TOP ELEVATION OF LAYER 1 =   200.000    

   MODEL LAYER BOTTOM EL. =   0.00000     FOR LAYER   1


 STRESS PERIOD     LENGTH       TIME STEPS     MULTIPLIER FOR DELT    SS FLAG
 ----------------------------------------------------------------------------
        1         1000.000          1                    1.000         SS

 STEADY-STATE SIMULATION



 
 #SUP3G Sample Problem, child #1 BAS file (40x40)                                
 THE FREE FORMAT OPTION HAS BEEN SELECTED



                     BOUNDARY ARRAY FOR LAYER   1
 READING ON UNIT   21 WITH FORMAT: (20I4)              

                1           2           3           4           5           6           7           8           9          10
               11          12          13          14          15          16          17          18          19          20
               21          22          23          24          25          26          27          28          29          30
               31          32          33          34          35          36          37          38          39          40
 ............................................................................................................................
   1           59          59          59          59          59          59          59          59          59          59
               59          59          59          59          59          59          59          59          59          59
               59          59          59          59          59          59          59          59          59          59
               59          59          59          59          59          59          59          59          59          59
   2           59           1           1           1           1           1           1           1           1           1
                1           1           1           1           1           1           1           1           1           1
                1           1           1           1           1           1           1           1           1           1
                1           1           1           1           1           1           1           1           1          59
   3           59           1           1           1           1           1           1           1           1           1
                1           1           1           1           1           1           1           1           1           1
                1           1           1           1           1           1           1           1           1           1
                1           1           1           1           1           1           1           1           1          59
   4           59           1           1           1           1           1           1           1           1           1
                1           1           1           1           1           1           1           1           1           1
                1           1           1           1           1           1           1           1           1           1
                1           1           1           1           1           1           1           1           1          59
   5           59           1           1           1           1           1           1           1           1           1
                1           1           1           1           1           1           1           1           1           1
                1           1           1           1           1           1           1           1           1           1
                1           1           1           1           1           1           1           1           1          59
   6           59           1           1           1           1           1           1           1           1           1
                1           1           1           1           1           1           1           1           1           1
                1           1           1           1           1           1           1           1           1           1
                1           1           1           1           1           1           1           1           1          59
   7           59           1           1           1           1           1           1           1           1           1
                1           1           1           1           1           1           1           1           1           1
                1           1           1           1           1           1           1           1           1           1
                1           1           1           1           1           1           1           1           1          59
   8           59           1           1           1           1           1           1           1           1           1
                1           1           1           1           1           1           1           1           1           1
                1           1           1           1           1           1           1           1           1           1
                1           1           1           1           1           1           1           1           1          59
   9           59           1           1           1           1           1           1           1           1           1
                1           1           1           1           1           1           1           1           1           1
                1           1           1           1           1           1           1           1           1           1
                1           1           1           1           1           1           1           1           1          59
  10           59           1           1           1           1           1           1           1           1           1
                1           1           1           1           1           1           1           1           1           1
                1           1           1           1           1           1           1           1           1           1
                1           1           1           1           1           1           1           1           1          59
  11           59           1           1           1           1           1           1           1           1           1
                1           1           1           1           1           1           1           1           1           1
                1           1           1           1           1           1           1           1           1           1
                1           1           1           1           1           1           1           1           1          59
  12           59           1           1           1           1           1           1           1           1           1
                1           1           1           1           1           1           1           1           1           1
                1           1           1           1           1           1           1           1           1           1
                1           1           1           1           1           1           1           1           1          59
  13           59           1           1           1           1           1           1           1           1           1
                1           1           1           1           1           1           1           1           1           1
                1           1           1           1           1           1           1           1           1           1
                1           1           1           1           1           1           1           1           1          59
  14           59           1           1           1           1           1           1           1           1           1
                1           1           1           1           1           1           1           1           1           1
                1           1           1           1           1           1           1           1           1           1
                1           1           1           1           1           1           1           1           1          59
  15           59           1           1           1           1           1           1           1           1           1
                1           1           1           1           1           1           1           1           1           1
                1           1           1           1           1           1           1           1           1           1
                1           1           1           1           1           1           1           1           1          59
  16           59           1           1           1           1           1           1           1           1           1
                1           1           1           1           1           1           1           1           1           1
                1           1           1           1           1           1           1           1           1           1
                1           1           1           1           1           1           1           1           1          59
  17           59           1           1           1           1           1           1           1           1           1
                1           1           1           1           1           1           1           1           1           1
                1           1           1           1           1           1           1           1           1           1
                1           1           1           1           1           1           1           1           1          59
  18           59           1           1           1           1           1           1           1           1           1
                1           1           1           1           1           1           1           1           1           1
                1           1           1           1           1           1           1           1           1           1
                1           1           1           1           1           1           1           1           1          59
  19           59           1           1           1           1           1           1           1           1           1
                1           1           1           1           1           1           1           1           1           1
                1           1           1           1           1           1           1           1           1           1
                1           1           1           1           1           1           1           1           1          59
  20           59           1           1           1           1           1           1           1           1           1
                1           1           1           1           1           1           1           1           1           1
                1           1           1           1           1           1           1           1           1           1
                1           1           1           1           1           1           1           1           1          59
  21           59           1           1           1           1           1           1           1           1           1
                1           1           1           1           1           1           1           1           1           1
                1           1           1           1           1           1           1           1           1           1
                1           1           1           1           1           1           1           1           1          59
  22           59           1           1           1           1           1           1           1           1           1
                1           1           1           1           1           1           1           1           1           1
                1           1           1           1           1           1           1           1           1           1
                1           1           1           1           1           1           1           1           1          59
  23           59           1           1           1           1           1           1           1           1           1
                1           1           1           1           1           1           1           1           1           1
                1           1           1           1           1           1           1           1           1           1
                1           1           1           1           1           1           1           1           1          59
  24           59           1           1           1           1           1           1           1           1           1
                1           1           1           1           1           1           1           1           1           1
                1           1           1           1           1           1           1           1           1           1
                1           1           1           1           1           1           1           1           1          59
  25           59           1           1           1           1           1           1           1           1           1
                1           1           1           1           1           1           1           1           1           1
                1           1           1           1           1           1           1           1           1           1
                1           1           1           1           1           1           1           1           1          59
  26           59           1           1           1           1           1           1           1           1           1
                1           1           1           1           1           1           1           1           1           1
                1           1           1           1           1           1           1           1           1           1
                1           1           1           1           1           1           1           1           1          59
  27           59           1           1           1           1           1           1           1           1           1
                1           1           1           1           1           1           1           1           1           1
                1           1           1           1           1           1           1           1           1           1
                1           1           1           1           1           1           1           1           1          59
  28           59           1           1           1           1           1           1           1           1           1
                1           1           1           1           1           1           1           1           1           1
                1           1           1           1           1           1           1           1           1           1
                1           1           1           1           1           1           1           1           1          59
  29           59           1           1           1           1           1           1           1           1           1
                1           1           1           1           1           1           1           1           1           1
                1           1           1           1           1           1           1           1           1           1
                1           1           1           1           1           1           1           1           1          59
  30           59           1           1           1           1           1           1           1           1           1
                1           1           1           1           1           1           1           1           1           1
                1           1           1           1           1           1           1           1           1           1
                1           1           1           1           1           1           1           1           1          59
  31           59           1           1           1           1           1           1           1           1           1
                1           1           1           1           1           1           1           1           1           1
                1           1           1           1           1           1           1           1           1           1
                1           1           1           1           1           1           1           1           1          59
  32           59           1           1           1           1           1           1           1           1           1
                1           1           1           1           1           1           1           1           1           1
                1           1           1           1           1           1           1           1           1           1
                1           1           1           1           1           1           1           1           1          59
  33           59           1           1           1           1           1           1           1           1           1
                1           1           1           1           1           1           1           1           1           1
                1           1           1           1           1           1           1           1           1           1
                1           1           1           1           1           1           1           1           1          59
  34           59           1           1           1           1           1           1           1           1           1
                1           1           1           1           1           1           1           1           1           1
                1           1           1           1           1           1           1           1           1           1
                1           1           1           1           1           1           1           1           1          59
  35           59           1           1           1           1           1           1           1           1           1
                1           1           1           1           1           1           1           1           1           1
                1           1           1           1           1           1           1           1           1           1
                1           1           1           1           1           1           1           1           1          59
  36           59           1           1           1           1           1           1           1           1           1
                1           1           1           1           1           1           1           1           1           1
                1           1           1           1           1           1           1           1           1           1
                1           1           1           1           1           1           1           1           1          59
  37           59           1           1           1           1           1           1           1           1           1
                1           1           1           1           1           1           1           1           1           1
                1           1           1           1           1           1           1           1           1           1
                1           1           1           1           1           1           1           1           1          59
  38           59           1           1           1           1           1           1           1           1           1
                1           1           1           1           1           1           1           1           1           1
                1           1           1           1           1           1           1           1           1           1
                1           1           1           1           1           1           1           1           1          59
  39           59           1           1           1           1           1           1           1           1           1
                1           1           1           1           1           1           1           1           1           1
                1           1           1           1           1           1           1           1           1           1
                1           1           1           1           1           1           1           1           1          59
  40           59          59          59          59          59          59          59          59          59          59
               59          59          59          59          59          59          59          59          59          59
               59          59          59          59          59          59          59          59          59          59
               59          59          59          59          59          59          59          59          59          59

 AQUIFER HEAD WILL BE SET TO  0.0000     AT ALL NO-FLOW NODES (IBOUND=0).

             INITIAL HEAD =   150.000     FOR LAYER   1

 DEFAULT OUTPUT CONTROL
 THE FOLLOWING OUTPUT COMES AT THE END OF EACH STRESS PERIOD:
 TOTAL VOLUMETRIC BUDGET
           HEAD

 BCF -- BLOCK-CENTERED FLOW PACKAGE, VERSION 7, 5/2/2005
         INPUT READ FROM UNIT 22
 STEADY-STATE SIMULATION
 HEAD AT CELLS THAT CONVERT TO DRY=   0.0000    
 WETTING CAPABILITY IS ACTIVE
 WETTING FACTOR=   1.00000     WETTING ITERATION INTERVAL=   1
 FLAG THAT SPECIFIES THE EQUATION TO USE FOR HEAD AT WETTED CELLS=   0
      LAYER  LAYER-TYPE CODE     INTERBLOCK T
      --------------------------------------------
         1            0          0 -- HARMONIC    

 COLUMN TO ROW ANISOTROPY =   1.00000    

     TRANSMIS. ALONG ROWS =   8000.00     FOR LAYER   1

 RCH -- RECHARGE PACKAGE, VERSION 7, 5/2/2005 INPUT READ FROM UNIT   25
 #SUP3G Sample Problem, child RECH file
     1 Named Parameters     
 OPTION 1 -- RECHARGE TO TOP LAYER


     1 Recharge parameters

 PARAMETER NAME:REC-CHD      TYPE:RCH    CLUSTERS:   1
 Parameter value from package file is:   1.00000E-03
                MULTIPLIER ARRAY: NONE    ZONE ARRAY: ALL
1
                            STRESS PERIOD NO.    1, LENGTH =   1000.000    
                            -----------------------------------------------

                              NUMBER OF TIME STEPS =     1

                               MULTIPLIER FOR DELT =     1.000

                            INITIAL TIME STEP SIZE =   1000.000    



 RECH array defined by the following parameters:
 Parameter:  REC-CHD

                 RECHARGE =  1.000000E-03

Flows at Managed Wells for Stress Period    1

 Well no.  Layer   Row   Col   Stress Rate
 ----------------------------------------------------
        1      1     9     9   -500000.0000000000    
        2      1     9    34    0.000000000000000    
        3      1    34    19   -425652.0855479297    
 ----------------------------------------------------
                      Total:   -925652.0855479296    
 
 SOLVING FOR HEAD 


     5 CALLS TO PCG ROUTINE FOR TIME STEP   1 IN STRESS PERIOD    1
    39 TOTAL ITERATIONS


     5 CALLS TO PCG ROUTINE FOR TIME STEP   1 IN STRESS PERIOD    1
    35 TOTAL ITERATIONS


     4 CALLS TO PCG ROUTINE FOR TIME STEP   1 IN STRESS PERIOD    1
    31 TOTAL ITERATIONS


     4 CALLS TO PCG ROUTINE FOR TIME STEP   1 IN STRESS PERIOD    1
    30 TOTAL ITERATIONS


     4 CALLS TO PCG ROUTINE FOR TIME STEP   1 IN STRESS PERIOD    1
    29 TOTAL ITERATIONS


     4 CALLS TO PCG ROUTINE FOR TIME STEP   1 IN STRESS PERIOD    1
    28 TOTAL ITERATIONS


     4 CALLS TO PCG ROUTINE FOR TIME STEP   1 IN STRESS PERIOD    1
    27 TOTAL ITERATIONS


     4 CALLS TO PCG ROUTINE FOR TIME STEP   1 IN STRESS PERIOD    1
    27 TOTAL ITERATIONS


     4 CALLS TO PCG ROUTINE FOR TIME STEP   1 IN STRESS PERIOD    1
    26 TOTAL ITERATIONS


     4 CALLS TO PCG ROUTINE FOR TIME STEP   1 IN STRESS PERIOD    1
    23 TOTAL ITERATIONS


     4 CALLS TO PCG ROUTINE FOR TIME STEP   1 IN STRESS PERIOD    1
    23 TOTAL ITERATIONS


     3 CALLS TO PCG ROUTINE FOR TIME STEP   1 IN STRESS PERIOD    1
    21 TOTAL ITERATIONS


     3 CALLS TO PCG ROUTINE FOR TIME STEP   1 IN STRESS PERIOD    1
    21 TOTAL ITERATIONS


     3 CALLS TO PCG ROUTINE FOR TIME STEP   1 IN STRESS PERIOD    1
    20 TOTAL ITERATIONS


     3 CALLS TO PCG ROUTINE FOR TIME STEP   1 IN STRESS PERIOD    1
    18 TOTAL ITERATIONS


     3 CALLS TO PCG ROUTINE FOR TIME STEP   1 IN STRESS PERIOD    1
    18 TOTAL ITERATIONS


     3 CALLS TO PCG ROUTINE FOR TIME STEP   1 IN STRESS PERIOD    1
    17 TOTAL ITERATIONS


     3 CALLS TO PCG ROUTINE FOR TIME STEP   1 IN STRESS PERIOD    1
    15 TOTAL ITERATIONS


     3 CALLS TO PCG ROUTINE FOR TIME STEP   1 IN STRESS PERIOD    1
    14 TOTAL ITERATIONS


     2 CALLS TO PCG ROUTINE FOR TIME STEP   1 IN STRESS PERIOD    1
    11 TOTAL ITERATIONS


     2 CALLS TO PCG ROUTINE FOR TIME STEP   1 IN STRESS PERIOD    1
    11 TOTAL ITERATIONS


     2 CALLS TO PCG ROUTINE FOR TIME STEP   1 IN STRESS PERIOD    1
    10 TOTAL ITERATIONS


     2 CALLS TO PCG ROUTINE FOR TIME STEP   1 IN STRESS PERIOD    1
    10 TOTAL ITERATIONS


     2 CALLS TO PCG ROUTINE FOR TIME STEP   1 IN STRESS PERIOD    1
     9 TOTAL ITERATIONS
1
              HEAD IN LAYER   1 AT END OF TIME STEP   1 IN STRESS PERIOD    1
  ---------------------------------------------------------------------------

            1           2           3           4           5           6           7           8           9          10
           11          12          13          14          15          16          17          18          19          20
           21          22          23          24          25          26          27          28          29          30
           31          32          33          34          35          36          37          38          39          40
 ........................................................................................................................
   1    146.5       146.2       145.9       145.7       145.5       145.3       145.3       145.4       145.7       146.2    
        146.8       147.5       148.4       149.4       150.4       151.4       152.5       153.5       154.6       155.7    
        156.7       157.7       158.8       159.8       160.8       161.8       162.7       163.7       164.6       165.6    
        166.5       167.5       168.4       169.3       170.2       171.1       172.0       172.8       173.7       174.6    
   2    145.8       145.4       145.0       144.7       144.4       144.1       144.0       144.0       144.3       144.8    
        145.5       146.3       147.3       148.4       149.5       150.6       151.8       152.9       154.0       155.1    
        156.2       157.3       158.4       159.4       160.4       161.4       162.4       163.4       164.4       165.4    
        166.3       167.2       168.2       169.1       170.0       170.9       171.8       172.7       173.6       174.5    
   3    145.1       144.6       144.1       143.6       143.2       142.8       142.5       142.5       142.7       143.2    
        144.0       145.0       146.1       147.3       148.5       149.8       151.0       152.2       153.4       154.6    
        155.8       156.9       158.0       159.0       160.1       161.1       162.2       163.2       164.2       165.1    
        166.1       167.1       168.0       168.9       169.9       170.8       171.7       172.6       173.5       174.3    
   4    144.5       143.9       143.2       142.6       141.9       141.3       140.8       140.6       140.8       141.3    
        142.3       143.5       144.8       146.2       147.6       149.0       150.3       151.6       152.9       154.1    
        155.3       156.5       157.6       158.7       159.8       160.8       161.9       162.9       163.9       164.9    
        165.9       166.9       167.8       168.8       169.7       170.6       171.5       172.4       173.3       174.2    
   5    143.9       143.1       142.3       141.5       140.6       139.7       138.9       138.4       138.4       139.1    
        140.3       141.8       143.4       145.1       146.7       148.2       149.6       151.0       152.4       153.7    
        154.9       156.1       157.3       158.4       159.5       160.6       161.6       162.7       163.7       164.7    
        165.7       166.7       167.6       168.6       169.5       170.5       171.4       172.3       173.2       174.1    
   6    143.3       142.5       141.5       140.4       139.3       138.0       136.7       135.6       135.4       136.4    
        138.1       140.1       142.1       144.0       145.8       147.5       149.0       150.5       151.9       153.2    
        154.5       155.7       156.9       158.1       159.2       160.3       161.4       162.4       163.5       164.5    
        165.5       166.5       167.5       168.4       169.4       170.3       171.3       172.2       173.1       174.0    
   7    142.8       141.9       140.8       139.5       138.0       136.2       134.2       132.2       131.0       132.8    
        135.6       138.3       140.8       143.0       145.0       146.8       148.5       150.0       151.5       152.9    
        154.2       155.4       156.6       157.8       159.0       160.1       161.2       162.2       163.3       164.3    
        165.3       166.3       167.3       168.3       169.3       170.2       171.2       172.1       173.0       173.9    
   8    142.5       141.5       140.3       138.8       137.0       134.7       131.7       127.7       123.8       128.4    
        133.0       136.8       139.8       142.3       144.4       146.3       148.1       149.7       151.1       152.5    
        153.9       155.1       156.4       157.6       158.7       159.8       160.9       162.0       163.1       164.1    
        165.2       166.2       167.2       168.2       169.1       170.1       171.0       172.0       172.9       173.8    
   9    142.3       141.3       140.0       138.5       136.6       133.9       130.1       123.3       108.0       124.0    
        131.4       136.0       139.2       141.9       144.1       146.0       147.8       149.4       150.9       152.3    
        153.6       154.9       156.1       157.3       158.5       159.6       160.7       161.8       162.9       164.0    
        165.0       166.0       167.0       168.0       169.0       170.0       170.9       171.9       172.8       173.8    
  10    142.3       141.2       140.0       138.6       136.7       134.4       131.4       127.4       123.5       128.1    
        132.7       136.4       139.4       141.9       144.0       145.9       147.6       149.2       150.7       152.1    
        153.4       154.7       156.0       157.1       158.3       159.5       160.6       161.7       162.7       163.8    
        164.8       165.9       166.9       167.9       168.9       169.9       170.8       171.8       172.7       173.7    
  11    142.4       141.4       140.3       139.0       137.4       135.6       133.5       131.5       130.4       132.1    
        134.8       137.5       140.0       142.2       144.2       146.0       147.6       149.2       150.6       152.0    
        153.3       154.6       155.8       157.0       158.1       159.3       160.4       161.5       162.6       163.7    
        164.7       165.7       166.8       167.8       168.8       169.8       170.7       171.7       172.7       173.6    
  12    142.6       141.7       140.7       139.6       138.4       137.1       135.7       134.7       134.3       135.3    
        137.0       138.9       140.9       142.7       144.5       146.2       147.7       149.2       150.6       151.9    
        153.2       154.4       155.7       156.8       158.0       159.1       160.3       161.4       162.4       163.5    
        164.6       165.6       166.6       167.7       168.7       169.7       170.6       171.6       172.6       173.5    
  13    142.9       142.2       141.3       140.4       139.4       138.5       137.6       137.1       137.0       137.7    
        138.8       140.3       141.8       143.4       145.0       146.4       147.9       149.3       150.6       151.9    
        153.1       154.4       155.5       156.7       157.9       159.0       160.1       161.2       162.3       163.4    
        164.4       165.5       166.5       167.6       168.6       169.6       170.6       171.5       172.5       173.5    
  14    143.3       142.7       141.9       141.2       140.5       139.8       139.3       139.0       139.0       139.5    
        140.4       141.5       142.8       144.1       145.5       146.8       148.1       149.4       150.7       151.9    
        153.1       154.3       155.5       156.6       157.8       158.9       160.0       161.1       162.2       163.3    
        164.3       165.4       166.4       167.5       168.5       169.5       170.5       171.5       172.4       173.4    
  15    143.8       143.2       142.6       142.0       141.5       141.0       140.6       140.5       140.6       141.0    
        141.7       142.6       143.6       144.8       146.0       147.1       148.4       149.5       150.7       151.9    
        153.1       154.2       155.4       156.5       157.6       158.8       159.9       161.0       162.1       163.1    
        164.2       165.3       166.3       167.4       168.4       169.4       170.4       171.4       172.4       173.4    
  16    144.2       143.7       143.2       142.8       142.3       142.0       141.8       141.7       141.9       142.2    
        142.8       143.5       144.4       145.4       146.4       147.5       148.6       149.7       150.8       151.9    
        153.1       154.2       155.3       156.4       157.5       158.6       159.8       160.9       161.9       163.0    
        164.1       165.2       166.2       167.3       168.3       169.3       170.3       171.4       172.3       173.3    
  17    144.7       144.3       143.9       143.5       143.2       142.9       142.8       142.8       142.9       143.2    
        143.7       144.4       145.1       145.9       146.9       147.8       148.8       149.9       150.9       152.0    
        153.0       154.1       155.2       156.3       157.4       158.5       159.6       160.7       161.8       162.9    
        164.0       165.1       166.1       167.2       168.2       169.3       170.3       171.3       172.3       173.3    
  18    145.1       144.8       144.5       144.1       143.9       143.7       143.6       143.6       143.8       144.1    
        144.5       145.0       145.7       146.4       147.2       148.1       149.0       150.0       151.0       152.0    
        153.0       154.1       155.1       156.2       157.3       158.4       159.5       160.6       161.7       162.8    
        163.9       165.0       166.1       167.1       168.2       169.2       170.2       171.3       172.3       173.2    
  19    145.6       145.3       145.0       144.7       144.5       144.4       144.3       144.4       144.5       144.8    
        145.1       145.6       146.2       146.8       147.5       148.3       149.2       150.1       151.0       152.0    
        153.0       154.0       155.0       156.1       157.2       158.3       159.4       160.5       161.6       162.7    
        163.8       164.9       166.0       167.1       168.1       169.2       170.2       171.2       172.2       173.2    
  20    146.0       145.7       145.5       145.3       145.1       145.0       145.0       145.0       145.1       145.4    
        145.7       146.1       146.6       147.1       147.8       148.5       149.3       150.1       151.0       151.9    
        152.9       153.9       154.9       156.0       157.1       158.2       159.3       160.4       161.5       162.6    
        163.7       164.8       165.9       167.0       168.1       169.1       170.2       171.2       172.2       173.2    
  21    146.4       146.2       146.0       145.8       145.7       145.6       145.5       145.6       145.7       145.8    
        146.1       146.5       146.9       147.4       147.9       148.6       149.3       150.1       150.9       151.8    
        152.7       153.7       154.8       155.8       156.9       158.0       159.1       160.3       161.4       162.5    
        163.6       164.7       165.8       166.9       168.0       169.1       170.1       171.2       172.2       173.2    
  22    146.8       146.6       146.4       146.2       146.1       146.0       146.0       146.0       146.1       146.2    
        146.5       146.7       147.1       147.5       148.0       148.6       149.3       150.0       150.8       151.6    
        152.5       153.5       154.6       155.6       156.7       157.8       159.0       160.1       161.3       162.4    
        163.5       164.7       165.8       166.9       168.0       169.1       170.1       171.2       172.2       173.2    
  23    147.2       147.0       146.8       146.7       146.5       146.5       146.4       146.4       146.5       146.6    
        146.7       147.0       147.3       147.6       148.0       148.6       149.1       149.8       150.6       151.4    
        152.3       153.3       154.3       155.4       156.5       157.6       158.8       160.0       161.1       162.3    
        163.5       164.6       165.7       166.8       168.0       169.0       170.1       171.2       172.2       173.2    
  24    147.5       147.3       147.2       147.0       146.9       146.8       146.8       146.8       146.8       146.8    
        146.9       147.1       147.3       147.6       148.0       148.4       148.9       149.6       150.3       151.1    
        152.0       153.0       154.0       155.1       156.3       157.4       158.6       159.8       161.0       162.2    
        163.4       164.5       165.7       166.8       167.9       169.0       170.1       171.2       172.2       173.3    
  25    147.8       147.7       147.5       147.4       147.3       147.2       147.1       147.1       147.0       147.1    
        147.1       147.2       147.3       147.5       147.8       148.2       148.6       149.2       149.9       150.7    
        151.6       152.6       153.7       154.8       156.0       157.2       158.4       159.7       160.9       162.1    
        163.3       164.5       165.7       166.8       167.9       169.0       170.1       171.2       172.3       173.3    
  26    148.2       148.0       147.9       147.7       147.6       147.5       147.4       147.3       147.3       147.2    
        147.2       147.2       147.3       147.4       147.6       147.9       148.2       148.7       149.4       150.2    
        151.1       152.1       153.3       154.5       155.7       157.0       158.2       159.5       160.8       162.0    
        163.2       164.4       165.6       166.8       167.9       169.1       170.2       171.2       172.3       173.3    
  27    148.5       148.3       148.2       148.1       147.9       147.8       147.7       147.6       147.4       147.4    
        147.3       147.2       147.2       147.2       147.3       147.4       147.7       148.1       148.7       149.5    
        150.5       151.6       152.8       154.1       155.4       156.7       158.0       159.4       160.7       161.9    
        163.2       164.4       165.6       166.8       168.0       169.1       170.2       171.3       172.4       173.4    
  28    148.8       148.7       148.5       148.4       148.2       148.1       147.9       147.8       147.6       147.5    
        147.3       147.2       147.0       146.9       146.8       146.8       147.0       147.3       147.8       148.6    
        149.7       150.9       152.2       153.6       155.0       156.4       157.8       159.2       160.6       161.9    
        163.2       164.4       165.7       166.8       168.0       169.2       170.3       171.4       172.4       173.5    
  29    149.1       149.0       148.8       148.7       148.5       148.4       148.2       148.0       147.8       147.6    
        147.3       147.1       146.8       146.6       146.3       146.1       146.1       146.2       146.7       147.6    
        148.7       150.1       151.6       153.1       154.7       156.2       157.7       159.1       160.5       161.9    
        163.2       164.4       165.7       166.9       168.1       169.2       170.4       171.5       172.5       173.6    
  30    149.4       149.3       149.1       149.0       148.8       148.6       148.4       148.2       148.0       147.7    
        147.4       147.0       146.6       146.2       145.8       145.3       145.0       144.9       145.2       146.2    
        147.6       149.2       150.9       152.6       154.3       155.9       157.5       159.0       160.5       161.9    
        163.2       164.5       165.8       167.0       168.2       169.3       170.5       171.6       172.6       173.7    
  31    149.7       149.6       149.5       149.3       149.1       148.9       148.7       148.5       148.2       147.9    
        147.5       147.0       146.5       145.9       145.2       144.4       143.6       143.1       143.2       144.3    
        146.1       148.2       150.2       152.2       154.0       155.8       157.4       159.0       160.5       161.9    
        163.3       164.6       165.9       167.1       168.3       169.5       170.6       171.7       172.8       173.8    
  32    150.0       149.9       149.8       149.6       149.5       149.3       149.0       148.8       148.4       148.1    
        147.6       147.1       146.4       145.6       144.6       143.4       142.0       140.6       140.0       141.8    
        144.5       147.2       149.6       151.8       153.8       155.7       157.4       159.0       160.6       162.0    
        163.4       164.7       166.0       167.2       168.4       169.6       170.7       171.8       172.9       174.0    
  33    150.4       150.3       150.1       150.0       149.8       149.6       149.4       149.1       148.7       148.3    
        147.9       147.3       146.5       145.6       144.3       142.7       140.4       137.3       134.3       138.6    
        142.8       146.3       149.2       151.7       153.8       155.8       157.5       159.2       160.7       162.2    
        163.6       164.9       166.2       167.4       168.6       169.8       170.9       172.0       173.1       174.1    
  34    150.7       150.6       150.5       150.3       150.2       150.0       149.7       149.4       149.1       148.7    
        148.2       147.6       146.8       145.8       144.4       142.5       139.5       134.1       121.4       135.3    
        141.9       146.1       149.3       151.8       154.0       156.0       157.7       159.4       160.9       162.4    
        163.8       165.1       166.4       167.6       168.8       170.0       171.1       172.2       173.3       174.3    
  35    151.1       151.0       150.8       150.7       150.6       150.4       150.1       149.9       149.5       149.1    
        148.6       148.0       147.3       146.3       145.1       143.4       141.1       138.1       135.0       139.3    
        143.5       147.0       149.9       152.3       154.4       156.3       158.1       159.7       161.2       162.7    
        164.1       165.4       166.7       167.9       169.1       170.2       171.3       172.4       173.5       174.5    
  36    151.4       151.3       151.2       151.1       151.0       150.8       150.6       150.3       150.0       149.7    
        149.2       148.7       148.0       147.2       146.2       144.9       143.5       142.0       141.4       143.2    
        145.8       148.5       150.9       153.1       155.1       156.9       158.6       160.1       161.6       163.1    
        164.4       165.7       166.9       168.2       169.3       170.5       171.6       172.6       173.7       174.7    
  37    151.8       151.7       151.6       151.5       151.4       151.3       151.1       150.9       150.6       150.3    
        149.9       149.4       148.9       148.2       147.5       146.6       145.8       145.2       145.3       146.4    
        148.1       150.1       152.1       154.0       155.8       157.5       159.1       160.7       162.1       163.5    
        164.8       166.1       167.3       168.5       169.6       170.7       171.8       172.9       173.9       174.9    
  38    152.2       152.1       152.1       152.0       151.9       151.8       151.6       151.4       151.2       150.9    
        150.6       150.2       149.8       149.3       148.8       148.3       147.9       147.7       148.0       148.9    
        150.2       151.8       153.4       155.1       156.7       158.3       159.8       161.2       162.6       163.9    
        165.2       166.4       167.6       168.8       169.9       171.0       172.1       173.2       174.2       175.2    
  39    152.6       152.5       152.5       152.4       152.4       152.3       152.1       152.0       151.8       151.6    
        151.4       151.1       150.8       150.5       150.2       149.9       149.8       149.8       150.2       151.0    
        152.1       153.4       154.8       156.2       157.7       159.1       160.5       161.9       163.2       164.4    
        165.7       166.9       168.0       169.2       170.3       171.4       172.4       173.5       174.5       175.5    
  40    153.0       152.9       152.9       152.9       152.9       152.8       152.7       152.6       152.5       152.4    
        152.2       152.0       151.8       151.6       151.5       151.4       151.4       151.6       152.0       152.7    
        153.7       154.8       156.0       157.3       158.6       160.0       161.3       162.5       163.8       165.0    
        166.2       167.3       168.5       169.6       170.6       171.7       172.7       173.8       174.8       175.7    
1
  VOLUMETRIC BUDGET FOR ENTIRE MODEL AT END OF TIME STEP    1, STRESS PERIOD   1
  ------------------------------------------------------------------------------

     CUMULATIVE VOLUMES      L**3       RATES FOR THIS TIME STEP      L**3/T
     ------------------                 ------------------------

           IN:                                      IN:
           ---                                      ---
             STORAGE =           0.0000               STORAGE =           0.0000
       CONSTANT HEAD =           0.0000         CONSTANT HEAD =           0.0000
            RECHARGE =    64000000.0000              RECHARGE =       64000.0000
       MANAGED WELLS =           0.0000         MANAGED WELLS =           0.0000
     GHOST-NODE HEAD =   861720669.8411       GHOST-NODE HEAD =      861720.6698

            TOTAL IN =   925720669.8411              TOTAL IN =      925720.6698

          OUT:                                     OUT:
          ----                                     ----
             STORAGE =           0.0000               STORAGE =           0.0000
       CONSTANT HEAD =           0.0000         CONSTANT HEAD =           0.0000
            RECHARGE =           0.0000              RECHARGE =           0.0000
       MANAGED WELLS =   925652085.5479         MANAGED WELLS =      925652.0855
     GHOST-NODE HEAD =       68584.3357       GHOST-NODE HEAD =          68.5843

           TOTAL OUT =   925720669.8837             TOTAL OUT =      925720.6699

            IN - OUT =      -4.2529E-02              IN - OUT =      -4.2529E-05

 PERCENT DISCREPANCY =           0.00     PERCENT DISCREPANCY =           0.00






         TIME SUMMARY AT END OF TIME STEP    1 IN STRESS PERIOD    1
                    SECONDS     MINUTES      HOURS       DAYS        YEARS
                    -----------------------------------------------------------
   TIME STEP LENGTH 8.64000E+07 1.44000E+06  24000.      1000.0      2.7379    
 STRESS PERIOD TIME 8.64000E+07 1.44000E+06  24000.      1000.0      2.7379    
         TOTAL TIME 8.64000E+07 1.44000E+06  24000.      1000.0      2.7379    
1
1
  FLUX ACROSS PARENT-CHILD INTERFACE AT TIME STEP  1 IN STRESS PERIOD    1
  ------------------------------------------------------------------------
 G-N FLUX        PARENT        CHILD         DIFFERENCE      % DIFFERENCE
  RATE IN:      8.6172E+05    8.6172E+05     6.3081E-03        0.0000
 RATE OUT:      6.8591E+01    6.8584E+01     6.3268E-03        0.0092
