                                  MODFLOW-LGR2     
      U.S. GEOLOGICAL SURVEY MODULAR FINITE-DIFFERENCE GROUNDWATER FLOW MODEL
                 VERSION GWM-2005 1.5.0 081513,FROM MF-LGR V2.0


     FINAL FLOW PROCESS SIMULATION FOR GWM                                                                                                                                                                   


 REWOUND ..\data\SUPPLY-3GRID\sup3g_par.ba6
 FILE TYPE:BAS6   UNIT   11

 REWOUND ..\data\SUPPLY-3GRID\sup3g_par.bc6
 FILE TYPE:BCF6   UNIT   66

 REWOUND ..\data\SUPPLY-3GRID\sup3g_par.dis
 FILE TYPE:DIS   UNIT   13

 REWOUND ..\data\SUPPLY-3GRID\sup3g_par.pcg
 FILE TYPE:PCG   UNIT   14

 REWOUND ..\data\SUPPLY-3GRID\sup3g_par.zone
 FILE TYPE:ZONE   UNIT   15

 REWOUND ..\data\SUPPLY-3GRID\sup3g_par.rch
 FILE TYPE:RCH   UNIT   16

 REWOUND ..\data\SUPPLY-3GRID\sup3g_par.gwm
 FILE TYPE:GWM   UNIT   17

 BAS -- BASIC PACKAGE, VERSION 7, 5/2/2005 INPUT READ FROM UNIT   11

 DISCRETIZATION INPUT DATA READ FROM UNIT   13
 #SUP3G Sample Problem, parent DIS file
    1 LAYERS        30 ROWS        50 COLUMNS
    1 STRESS PERIOD(S) IN SIMULATION
 MODEL TIME UNIT IS DAYS
 MODEL LENGTH UNIT IS UNDEFINED
  Confining bed flag for each layer:
   0

                     DELR =   1000.00    

                     DELC =   1000.00    

 TOP ELEVATION OF LAYER 1 =   200.000    

   MODEL LAYER BOTTOM EL. =   0.00000     FOR LAYER   1


 STRESS PERIOD     LENGTH       TIME STEPS     MULTIPLIER FOR DELT    SS FLAG
 ----------------------------------------------------------------------------
        1         1000.000          1                    1.000         SS

 STEADY-STATE SIMULATION



 
 #SUP3G Sample Problem, parent BAS6 file                                         
 THE FREE FORMAT OPTION HAS BEEN SELECTED



                     BOUNDARY ARRAY FOR LAYER   1
 READING ON UNIT   11 WITH FORMAT: (20I4)              

                1           2           3           4           5           6           7           8           9          10
               11          12          13          14          15          16          17          18          19          20
               21          22          23          24          25          26          27          28          29          30
               31          32          33          34          35          36          37          38          39          40
               41          42          43          44          45          46          47          48          49          50
 ............................................................................................................................
   1           -1           1           1           1           1           1           1           1           1           1
                1           1           1           1           1           1           1           1           1           1
                1           1           1           1           1           1           1           1           1           1
                1           1           1           1           1           1           1           1           1           1
                1           1           1           1           1           1           1           1           1          -1
   2           -1           1           1           1           1           1           1           1           1           1
                1           1           1           1           1           1           1           1           1           1
                1           1           1           1           1           1           1           1           1           1
                1           1           1           1           1           1           1           1           1           1
                1           1           1           1           1           1           1           1           1          -1
   3           -1           1           1           1           1           1           1           1           1           1
                1           1           1           1           1           1           1           1           1           1
                1           1           1           1           1           1           1           1           1           1
                1           1           1           1           1           1           1           1           1           1
                1           1           1           1           1           1           1           1           1          -1
   4           -1           1           1           1           1           1           1           1           1           1
                1           1           1           1           1           1           1           1           1           1
                1           1           1           1           1           1           1           1           1           1
                1           1           1           1           1           1           1           1           1           1
                1           1           1           1           1           1           1           1           1          -1
   5           -1           1           1           1           1           1           1           1           1           1
                1           1           1           1           1           1           1           1           1           1
                1           1           1           1           1           1           1           1           1           1
                1           1           1           1           1           1           1           1           1           1
                1           1           1           1           1           1           1           1           1          -1
   6           -1           1           1           1           1           1           1           1           1           1
                1           1           1           1           1           1           1           1           1           1
                1           1           1           1           1           1           1           1           1           1
                1           1           1           1           1           1           1           1           1           1
                1           1           1           1           1           1           1           1           1          -1
   7           -1           1           1           1           1           1           1           1           1           1
                1           1           1           1           1           1           1           1           1           1
                1           1           1           1           1           1           1           1           1           1
                1           1           1           1           1           1           1           1           1           1
                1           1           1           1           1           1           1           1           1          -1
   8           -1           1           1           1           1           1           1           1           1           1
                1           1           1           1           1           1           1           1           1           1
                1           1           1           1           1           1           1           1           1           1
                1           1           1           1           1           1           1           1           1           1
                1           1           1           1           1           1           1           1           1          -1
   9           -1           1           1           1           1           1           1           1           1           1
                1           1           1           1           1           1           1           1           1           1
                1           1           1           1           1           1           1           1           1           1
                1           1           1           1           1           1           1           1           1           1
                1           1           1           1           1           1           1           1           1          -1
  10           -1           1           1           1           1           1           1           1           1           1
                1           1           1           1           1           1           1           1           1           1
                1           1           1           1           1           1           1           1           1           1
                1           1           1           1           1           1           1           1           1           1
                1           1           1           1           1           1           1           1           1          -1
  11           -1           1           1           1           1           1           1           1           1           1
                1           1           1           1           1           1           1           1           1           1
                1           1           1           1           1           1           1           1           1           1
                1           1           1           1           1           1           1           1           1           1
                1           1           1           1           1           1           1           1           1          -1
  12           -1           1           1           1           1           1           1           1           1           1
                1           1           1           1           1           1           1           1           1           1
                1           1           1           1           1           1           1           1           1           1
                1           1           1           1           1           1           1           1           1           1
                1           1           1           1           1           1           1           1           1          -1
  13           -1           1           1           1           1           1           1           1           1           1
                1           1           1           1           1           1           1           1           1           1
                1           1           1           1           1           1           1           1           1           1
                1           1           1           1           1           1           1           1           1           1
                1           1           1           1           1           1           1           1           1          -1
  14           -1           1           1           1           1           1           1           1           1           1
                1           1           1           1           1           1           1           1           1           1
                1           1           1           1           1           1           1           1           1           1
                1           1           1           1           1           1           1           1           1           1
                1           1           1           1           1           1           1           1           1          -1
  15           -1           1           1           1           1           1           1           1           1           1
                1           1           1           1           1           1           1           1           1           1
                1           1           1           1           1           1           1           1           1           1
                1           1           1           1           1           1           1           1           1           1
                1           1           1           1           1           1           1           1           1          -1
  16           -1           1           1           1           1           1           1           1           1           1
                1           1           1           1           1           1           1           1           1           1
                1           1           1           1           1           1           1           1           1           1
                1           1           1           1           1           1           1           1           1           1
                1           1           1           1           1           1           1           1           1          -1
  17           -1           1           1           1           1           1           1           1           1           1
                1           1           1           1           1           1           1           1           1           1
                1           1           1           1           1           1           1           1           1           1
                1           1           1           1           1           1           1           1           1           1
                1           1           1           1           1           1           1           1           1          -1
  18           -1           1           1           1           1           1           1           1           1           1
                1           1           1           1           1           1           1           1           1           1
                1           1           1           1           1           1           1           1           1           1
                1           1           1           1           1           1           1           1           1           1
                1           1           1           1           1           1           1           1           1          -1
  19           -1           1           1           1           1           1           1           1           1           1
                1           1           1           1           1           1           1           1           1           1
                1           1           1           1           1           1           1           1           1           1
                1           1           1           1           1           1           1           1           1           1
                1           1           1           1           1           1           1           1           1          -1
  20           -1           1           1           1           1           1           1           1           1           1
                1           1           1           1           1           1           1           1           1           1
                1           1           1           1           1           1           1           1           1           1
                1           1           1           1           1           1           1           1           1           1
                1           1           1           1           1           1           1           1           1          -1
  21           -1           1           1           1           1           1           1           1           1           1
                1           1           1           1           1           1           1           1           1           1
                1           1           1           1           1           1           1           1           1           1
                1           1           1           1           1           1           1           1           1           1
                1           1           1           1           1           1           1           1           1          -1
  22           -1           1           1           1           1           1           1           1           1           1
                1           1           1           1           1           1           1           1           1           1
                1           1           1           1           1           1           1           1           1           1
                1           1           1           1           1           1           1           1           1           1
                1           1           1           1           1           1           1           1           1          -1
  23           -1           1           1           1           1           1           1           1           1           1
                1           1           1           1           1           1           1           1           1           1
                1           1           1           1           1           1           1           1           1           1
                1           1           1           1           1           1           1           1           1           1
                1           1           1           1           1           1           1           1           1          -1
  24           -1           1           1           1           1           1           1           1           1           1
                1           1           1           1           1           1           1           1           1           1
                1           1           1           1           1           1           1           1           1           1
                1           1           1           1           1           1           1           1           1           1
                1           1           1           1           1           1           1           1           1          -1
  25           -1           1           1           1           1           1           1           1           1           1
                1           1           1           1           1           1           1           1           1           1
                1           1           1           1           1           1           1           1           1           1
                1           1           1           1           1           1           1           1           1           1
                1           1           1           1           1           1           1           1           1          -1
  26           -1           1           1           1           1           1           1           1           1           1
                1           1           1           1           1           1           1           1           1           1
                1           1           1           1           1           1           1           1           1           1
                1           1           1           1           1           1           1           1           1           1
                1           1           1           1           1           1           1           1           1          -1
  27           -1           1           1           1           1           1           1           1           1           1
                1           1           1           1           1           1           1           1           1           1
                1           1           1           1           1           1           1           1           1           1
                1           1           1           1           1           1           1           1           1           1
                1           1           1           1           1           1           1           1           1          -1
  28           -1           1           1           1           1           1           1           1           1           1
                1           1           1           1           1           1           1           1           1           1
                1           1           1           1           1           1           1           1           1           1
                1           1           1           1           1           1           1           1           1           1
                1           1           1           1           1           1           1           1           1          -1
  29           -1           1           1           1           1           1           1           1           1           1
                1           1           1           1           1           1           1           1           1           1
                1           1           1           1           1           1           1           1           1           1
                1           1           1           1           1           1           1           1           1           1
                1           1           1           1           1           1           1           1           1          -1
  30           -1           1           1           1           1           1           1           1           1           1
                1           1           1           1           1           1           1           1           1           1
                1           1           1           1           1           1           1           1           1           1
                1           1           1           1           1           1           1           1           1           1
                1           1           1           1           1           1           1           1           1          -1

 AQUIFER HEAD WILL BE SET TO  0.0000     AT ALL NO-FLOW NODES (IBOUND=0).



                       INITIAL HEAD FOR LAYER   1
 READING ON UNIT   11 WITH FORMAT: (10F13.0)           

            1           2           3           4           5           6           7           8           9          10
           11          12          13          14          15          16          17          18          19          20
           21          22          23          24          25          26          27          28          29          30
           31          32          33          34          35          36          37          38          39          40
           41          42          43          44          45          46          47          48          49          50
 ........................................................................................................................
   1    150.0       150.0       150.0       150.0       150.0       150.0       150.0       150.0       150.0       150.0    
        150.0       150.0       150.0       150.0       150.0       150.0       150.0       150.0       150.0       150.0    
        150.0       150.0       150.0       150.0       150.0       150.0       150.0       150.0       150.0       150.0    
        150.0       150.0       150.0       150.0       150.0       150.0       150.0       150.0       150.0       150.0    
        150.0       150.0       150.0       150.0       150.0       150.0       150.0       150.0       150.0       300.0    
   2    150.0       150.0       150.0       150.0       150.0       150.0       150.0       150.0       150.0       150.0    
        150.0       150.0       150.0       150.0       150.0       150.0       150.0       150.0       150.0       150.0    
        150.0       150.0       150.0       150.0       150.0       150.0       150.0       150.0       150.0       150.0    
        150.0       150.0       150.0       150.0       150.0       150.0       150.0       150.0       150.0       150.0    
        150.0       150.0       150.0       150.0       150.0       150.0       150.0       150.0       150.0       300.0    
   3    150.0       150.0       150.0       150.0       150.0       150.0       150.0       150.0       150.0       150.0    
        150.0       150.0       150.0       150.0       150.0       150.0       150.0       150.0       150.0       150.0    
        150.0       150.0       150.0       150.0       150.0       150.0       150.0       150.0       150.0       150.0    
        150.0       150.0       150.0       150.0       150.0       150.0       150.0       150.0       150.0       150.0    
        150.0       150.0       150.0       150.0       150.0       150.0       150.0       150.0       150.0       300.0    
   4    150.0       150.0       150.0       150.0       150.0       150.0       150.0       150.0       150.0       150.0    
        150.0       150.0       150.0       150.0       150.0       150.0       150.0       150.0       150.0       150.0    
        150.0       150.0       150.0       150.0       150.0       150.0       150.0       150.0       150.0       150.0    
        150.0       150.0       150.0       150.0       150.0       150.0       150.0       150.0       150.0       150.0    
        150.0       150.0       150.0       150.0       150.0       150.0       150.0       150.0       150.0       300.0    
   5    150.0       150.0       150.0       150.0       150.0       150.0       150.0       150.0       150.0       150.0    
        150.0       150.0       150.0       150.0       150.0       150.0       150.0       150.0       150.0       150.0    
        150.0       150.0       150.0       150.0       150.0       150.0       150.0       150.0       150.0       150.0    
        150.0       150.0       150.0       150.0       150.0       150.0       150.0       150.0       150.0       150.0    
        150.0       150.0       150.0       150.0       150.0       150.0       150.0       150.0       150.0       300.0    
   6    150.0       150.0       150.0       150.0       150.0       150.0       150.0       150.0       150.0       150.0    
        150.0       150.0       150.0       150.0       150.0       150.0       150.0       150.0       150.0       150.0    
        150.0       150.0       150.0       150.0       150.0       150.0       150.0       150.0       150.0       150.0    
        150.0       150.0       150.0       150.0       150.0       150.0       150.0       150.0       150.0       150.0    
        150.0       150.0       150.0       150.0       150.0       150.0       150.0       150.0       150.0       300.0    
   7    150.0       150.0       150.0       150.0       150.0       150.0       150.0       150.0       150.0       150.0    
        150.0       150.0       150.0       150.0       150.0       150.0       150.0       150.0       150.0       150.0    
        150.0       150.0       150.0       150.0       150.0       150.0       150.0       150.0       150.0       150.0    
        150.0       150.0       150.0       150.0       150.0       150.0       150.0       150.0       150.0       150.0    
        150.0       150.0       150.0       150.0       150.0       150.0       150.0       150.0       150.0       300.0    
   8    150.0       150.0       150.0       150.0       150.0       150.0       150.0       150.0       150.0       150.0    
        150.0       150.0       150.0       150.0       150.0       150.0       150.0       150.0       150.0       150.0    
        150.0       150.0       150.0       150.0       150.0       150.0       150.0       150.0       150.0       150.0    
        150.0       150.0       150.0       150.0       150.0       150.0       150.0       150.0       150.0       150.0    
        150.0       150.0       150.0       150.0       150.0       150.0       150.0       150.0       150.0       300.0    
   9    150.0       150.0       150.0       150.0       150.0       150.0       150.0       150.0       150.0       150.0    
        150.0       150.0       150.0       150.0       150.0       150.0       150.0       150.0       150.0       150.0    
        150.0       150.0       150.0       150.0       150.0       150.0       150.0       150.0       150.0       150.0    
        150.0       150.0       150.0       150.0       150.0       150.0       150.0       150.0       150.0       150.0    
        150.0       150.0       150.0       150.0       150.0       150.0       150.0       150.0       150.0       300.0    
  10    150.0       150.0       150.0       150.0       150.0       150.0       150.0       150.0       150.0       150.0    
        150.0       150.0       150.0       150.0       150.0       150.0       150.0       150.0       150.0       150.0    
        150.0       150.0       150.0       150.0       150.0       150.0       150.0       150.0       150.0       150.0    
        150.0       150.0       150.0       150.0       150.0       150.0       150.0       150.0       150.0       150.0    
        150.0       150.0       150.0       150.0       150.0       150.0       150.0       150.0       150.0       300.0    
  11    150.0       150.0       150.0       150.0       150.0       150.0       150.0       150.0       150.0       150.0    
        150.0       150.0       150.0       150.0       150.0       150.0       150.0       150.0       150.0       150.0    
        150.0       150.0       150.0       150.0       150.0       150.0       150.0       150.0       150.0       150.0    
        150.0       150.0       150.0       150.0       150.0       150.0       150.0       150.0       150.0       150.0    
        150.0       150.0       150.0       150.0       150.0       150.0       150.0       150.0       150.0       300.0    
  12    150.0       150.0       150.0       150.0       150.0       150.0       150.0       150.0       150.0       150.0    
        150.0       150.0       150.0       150.0       150.0       150.0       150.0       150.0       150.0       150.0    
        150.0       150.0       150.0       150.0       150.0       150.0       150.0       150.0       150.0       150.0    
        150.0       150.0       150.0       150.0       150.0       150.0       150.0       150.0       150.0       150.0    
        150.0       150.0       150.0       150.0       150.0       150.0       150.0       150.0       150.0       300.0    
  13    150.0       150.0       150.0       150.0       150.0       150.0       150.0       150.0       150.0       150.0    
        150.0       150.0       150.0       150.0       150.0       150.0       150.0       150.0       150.0       150.0    
        150.0       150.0       150.0       150.0       150.0       150.0       150.0       150.0       150.0       150.0    
        150.0       150.0       150.0       150.0       150.0       150.0       150.0       150.0       150.0       150.0    
        150.0       150.0       150.0       150.0       150.0       150.0       150.0       150.0       150.0       300.0    
  14    150.0       150.0       150.0       150.0       150.0       150.0       150.0       150.0       150.0       150.0    
        150.0       150.0       150.0       150.0       150.0       150.0       150.0       150.0       150.0       150.0    
        150.0       150.0       150.0       150.0       150.0       150.0       150.0       150.0       150.0       150.0    
        150.0       150.0       150.0       150.0       150.0       150.0       150.0       150.0       150.0       150.0    
        150.0       150.0       150.0       150.0       150.0       150.0       150.0       150.0       150.0       300.0    
  15    150.0       150.0       150.0       150.0       150.0       150.0       150.0       150.0       150.0       150.0    
        150.0       150.0       150.0       150.0       150.0       150.0       150.0       150.0       150.0       150.0    
        150.0       150.0       150.0       150.0       150.0       150.0       150.0       150.0       150.0       150.0    
        150.0       150.0       150.0       150.0       150.0       150.0       150.0       150.0       150.0       150.0    
        150.0       150.0       150.0       150.0       150.0       150.0       150.0       150.0       150.0       300.0    
  16    150.0       150.0       150.0       150.0       150.0       150.0       150.0       150.0       150.0       150.0    
        150.0       150.0       150.0       150.0       150.0       150.0       150.0       150.0       150.0       150.0    
        150.0       150.0       150.0       150.0       150.0       150.0       150.0       150.0       150.0       150.0    
        150.0       150.0       150.0       150.0       150.0       150.0       150.0       150.0       150.0       150.0    
        150.0       150.0       150.0       150.0       150.0       150.0       150.0       150.0       150.0       300.0    
  17    150.0       150.0       150.0       150.0       150.0       150.0       150.0       150.0       150.0       150.0    
        150.0       150.0       150.0       150.0       150.0       150.0       150.0       150.0       150.0       150.0    
        150.0       150.0       150.0       150.0       150.0       150.0       150.0       150.0       150.0       150.0    
        150.0       150.0       150.0       150.0       150.0       150.0       150.0       150.0       150.0       150.0    
        150.0       150.0       150.0       150.0       150.0       150.0       150.0       150.0       150.0       300.0    
  18    150.0       150.0       150.0       150.0       150.0       150.0       150.0       150.0       150.0       150.0    
        150.0       150.0       150.0       150.0       150.0       150.0       150.0       150.0       150.0       150.0    
        150.0       150.0       150.0       150.0       150.0       150.0       150.0       150.0       150.0       150.0    
        150.0       150.0       150.0       150.0       150.0       150.0       150.0       150.0       150.0       150.0    
        150.0       150.0       150.0       150.0       150.0       150.0       150.0       150.0       150.0       300.0    
  19    150.0       150.0       150.0       150.0       150.0       150.0       150.0       150.0       150.0       150.0    
        150.0       150.0       150.0       150.0       150.0       150.0       150.0       150.0       150.0       150.0    
        150.0       150.0       150.0       150.0       150.0       150.0       150.0       150.0       150.0       150.0    
        150.0       150.0       150.0       150.0       150.0       150.0       150.0       150.0       150.0       150.0    
        150.0       150.0       150.0       150.0       150.0       150.0       150.0       150.0       150.0       300.0    
  20    150.0       150.0       150.0       150.0       150.0       150.0       150.0       150.0       150.0       150.0    
        150.0       150.0       150.0       150.0       150.0       150.0       150.0       150.0       150.0       150.0    
        150.0       150.0       150.0       150.0       150.0       150.0       150.0       150.0       150.0       150.0    
        150.0       150.0       150.0       150.0       150.0       150.0       150.0       150.0       150.0       150.0    
        150.0       150.0       150.0       150.0       150.0       150.0       150.0       150.0       150.0       300.0    
  21    150.0       150.0       150.0       150.0       150.0       150.0       150.0       150.0       150.0       150.0    
        150.0       150.0       150.0       150.0       150.0       150.0       150.0       150.0       150.0       150.0    
        150.0       150.0       150.0       150.0       150.0       150.0       150.0       150.0       150.0       150.0    
        150.0       150.0       150.0       150.0       150.0       150.0       150.0       150.0       150.0       150.0    
        150.0       150.0       150.0       150.0       150.0       150.0       150.0       150.0       150.0       300.0    
  22    150.0       150.0       150.0       150.0       150.0       150.0       150.0       150.0       150.0       150.0    
        150.0       150.0       150.0       150.0       150.0       150.0       150.0       150.0       150.0       150.0    
        150.0       150.0       150.0       150.0       150.0       150.0       150.0       150.0       150.0       150.0    
        150.0       150.0       150.0       150.0       150.0       150.0       150.0       150.0       150.0       150.0    
        150.0       150.0       150.0       150.0       150.0       150.0       150.0       150.0       150.0       300.0    
  23    150.0       150.0       150.0       150.0       150.0       150.0       150.0       150.0       150.0       150.0    
        150.0       150.0       150.0       150.0       150.0       150.0       150.0       150.0       150.0       150.0    
        150.0       150.0       150.0       150.0       150.0       150.0       150.0       150.0       150.0       150.0    
        150.0       150.0       150.0       150.0       150.0       150.0       150.0       150.0       150.0       150.0    
        150.0       150.0       150.0       150.0       150.0       150.0       150.0       150.0       150.0       300.0    
  24    150.0       150.0       150.0       150.0       150.0       150.0       150.0       150.0       150.0       150.0    
        150.0       150.0       150.0       150.0       150.0       150.0       150.0       150.0       150.0       150.0    
        150.0       150.0       150.0       150.0       150.0       150.0       150.0       150.0       150.0       150.0    
        150.0       150.0       150.0       150.0       150.0       150.0       150.0       150.0       150.0       150.0    
        150.0       150.0       150.0       150.0       150.0       150.0       150.0       150.0       150.0       300.0    
  25    150.0       150.0       150.0       150.0       150.0       150.0       150.0       150.0       150.0       150.0    
        150.0       150.0       150.0       150.0       150.0       150.0       150.0       150.0       150.0       150.0    
        150.0       150.0       150.0       150.0       150.0       150.0       150.0       150.0       150.0       150.0    
        150.0       150.0       150.0       150.0       150.0       150.0       150.0       150.0       150.0       150.0    
        150.0       150.0       150.0       150.0       150.0       150.0       150.0       150.0       150.0       300.0    
  26    150.0       150.0       150.0       150.0       150.0       150.0       150.0       150.0       150.0       150.0    
        150.0       150.0       150.0       150.0       150.0       150.0       150.0       150.0       150.0       150.0    
        150.0       150.0       150.0       150.0       150.0       150.0       150.0       150.0       150.0       150.0    
        150.0       150.0       150.0       150.0       150.0       150.0       150.0       150.0       150.0       150.0    
        150.0       150.0       150.0       150.0       150.0       150.0       150.0       150.0       150.0       300.0    
  27    150.0       150.0       150.0       150.0       150.0       150.0       150.0       150.0       150.0       150.0    
        150.0       150.0       150.0       150.0       150.0       150.0       150.0       150.0       150.0       150.0    
        150.0       150.0       150.0       150.0       150.0       150.0       150.0       150.0       150.0       150.0    
        150.0       150.0       150.0       150.0       150.0       150.0       150.0       150.0       150.0       150.0    
        150.0       150.0       150.0       150.0       150.0       150.0       150.0       150.0       150.0       300.0    
  28    150.0       150.0       150.0       150.0       150.0       150.0       150.0       150.0       150.0       150.0    
        150.0       150.0       150.0       150.0       150.0       150.0       150.0       150.0       150.0       150.0    
        150.0       150.0       150.0       150.0       150.0       150.0       150.0       150.0       150.0       150.0    
        150.0       150.0       150.0       150.0       150.0       150.0       150.0       150.0       150.0       150.0    
        150.0       150.0       150.0       150.0       150.0       150.0       150.0       150.0       150.0       300.0    
  29    150.0       150.0       150.0       150.0       150.0       150.0       150.0       150.0       150.0       150.0    
        150.0       150.0       150.0       150.0       150.0       150.0       150.0       150.0       150.0       150.0    
        150.0       150.0       150.0       150.0       150.0       150.0       150.0       150.0       150.0       150.0    
        150.0       150.0       150.0       150.0       150.0       150.0       150.0       150.0       150.0       150.0    
        150.0       150.0       150.0       150.0       150.0       150.0       150.0       150.0       150.0       300.0    
  30    150.0       150.0       150.0       150.0       150.0       150.0       150.0       150.0       150.0       150.0    
        150.0       150.0       150.0       150.0       150.0       150.0       150.0       150.0       150.0       150.0    
        150.0       150.0       150.0       150.0       150.0       150.0       150.0       150.0       150.0       150.0    
        150.0       150.0       150.0       150.0       150.0       150.0       150.0       150.0       150.0       150.0    
        150.0       150.0       150.0       150.0       150.0       150.0       150.0       150.0       150.0       300.0    

 DEFAULT OUTPUT CONTROL
 THE FOLLOWING OUTPUT COMES AT THE END OF EACH STRESS PERIOD:
 TOTAL VOLUMETRIC BUDGET
           HEAD

 ZONE OPTION, INPUT READ FROM UNIT   15
 #SUP3G Sample Problem, ZONE for parent recharge
 #RCHZONE used in RECH file for parent
     1 ZONE ARRAYS



             ZONE ARRAY: RCHZONE   
 READING ON UNIT   15 WITH FORMAT: (50I2)              

      1 2 3 4 5 6 7 8 91011121314151617181920212223242526272829303132333435363738394041424344454647484950
 ........................................................................................................
   1  1 1 1 1 1 1 1 1 1 1 1 1 1 1 1 1 1 1 1 1 1 1 1 1 1 1 1 1 1 1 1 1 1 1 1 1 1 1 1 1 1 1 1 1 1 1 1 1 1 1
   2  1 1 1 1 1 1 1 1 1 1 1 1 1 1 1 1 1 1 1 1 1 1 1 1 1 1 1 1 1 1 1 1 1 1 1 1 1 1 1 1 1 1 1 1 1 1 1 1 1 1
   3  1 1 1 1 1 1 1 1 1 1 1 1 1 1 1 1 1 1 1 1 1 1 1 1 1 1 1 1 1 1 1 1 1 1 1 1 1 1 1 1 1 1 1 1 1 1 1 1 1 1
   4  1 1 1 1 1 1 1 1 1 1 1 1 1 1 1 1 1 1 1 1 1 1 1 1 1 1 1 1 1 1 1 1 1 1 1 1 1 1 1 1 1 1 1 1 1 1 1 1 1 1
   5  1 1 1 1 1 1 1 1 1 1 1 1 1 1 1 1 1 1 1 1 1 1 1 1 1 1 1 1 1 1 1 1 1 1 1 1 1 1 1 1 1 1 1 1 1 1 1 1 1 1
   6  1 1 1 1 1 2 3 3 3 3 3 3 3 3 2 1 1 1 1 1 1 1 1 1 1 1 1 1 1 1 1 1 1 1 1 2 3 3 3 2 1 1 1 1 1 1 1 1 1 1
   7  1 1 1 1 1 3 0 0 0 0 0 0 0 0 3 1 1 1 1 1 1 1 1 1 1 1 1 1 1 1 1 1 1 1 1 3 0 0 0 3 1 1 1 1 1 1 1 1 1 1
   8  1 1 1 1 1 3 0 0 0 0 0 0 0 0 3 1 1 1 1 1 1 1 1 1 1 1 1 1 1 1 1 1 1 1 1 3 0 0 0 3 1 1 1 1 1 1 1 1 1 1
   9  1 1 1 1 1 3 0 0 0 0 0 0 0 0 3 1 1 1 1 1 1 1 1 1 1 1 1 1 1 1 1 1 1 1 1 3 0 0 0 3 1 1 1 1 1 1 1 1 1 1
  10  1 1 1 1 1 3 0 0 0 0 0 0 0 0 3 1 1 1 1 1 1 1 1 1 1 1 1 1 1 1 1 1 1 1 1 2 3 3 3 2 1 1 1 1 1 1 1 1 1 1
  11  1 1 1 1 1 3 0 0 0 0 0 0 0 0 3 1 1 1 1 1 1 1 1 1 1 1 1 1 1 1 1 1 1 1 1 1 1 1 1 1 1 1 1 1 1 1 1 1 1 1
  12  1 1 1 1 1 3 0 0 0 0 0 0 0 0 3 1 1 1 1 1 1 1 1 1 1 1 1 1 1 1 1 1 1 1 1 1 1 1 1 1 1 1 1 1 1 1 1 1 1 1
  13  1 1 1 1 1 3 0 0 0 0 0 0 0 0 3 1 1 1 1 1 1 1 1 1 1 1 1 1 1 1 1 1 1 1 1 1 1 1 1 1 1 1 1 1 1 1 1 1 1 1
  14  1 1 1 1 1 3 0 0 0 0 0 0 0 0 3 1 1 1 1 1 1 1 1 1 1 1 1 1 1 1 1 1 1 1 1 1 1 1 1 1 1 1 1 1 1 1 1 1 1 1
  15  1 1 1 1 1 2 3 3 3 3 3 3 3 3 2 1 1 1 1 1 1 1 1 1 1 1 1 1 1 1 1 1 1 1 1 1 1 1 1 1 1 1 1 1 1 1 1 1 1 1
  16  1 1 1 1 1 1 1 1 1 1 1 1 1 1 1 1 1 1 1 1 1 1 1 1 1 1 1 1 1 1 1 1 1 1 1 1 1 1 1 1 1 1 1 1 1 1 1 1 1 1
  17  1 1 1 1 1 1 1 1 1 1 1 1 1 1 1 1 1 1 1 1 1 1 1 1 1 1 1 1 1 1 1 1 1 1 1 1 1 1 1 1 1 1 1 1 1 1 1 1 1 1
  18  1 1 1 1 1 1 1 1 1 1 1 1 1 1 1 1 1 1 1 1 1 1 1 1 1 1 1 1 1 1 1 1 1 1 1 1 1 1 1 1 1 1 1 1 1 1 1 1 1 1
  19  1 1 1 1 1 1 1 1 1 1 1 1 1 1 1 1 1 1 1 1 1 1 1 1 1 1 1 1 1 1 1 1 1 1 1 1 1 1 1 1 1 1 1 1 1 1 1 1 1 1
  20  1 1 1 1 1 1 1 1 1 1 1 1 1 1 1 1 1 1 1 1 1 1 1 1 1 1 1 1 1 1 1 1 1 1 1 1 1 1 1 1 1 1 1 1 1 1 1 1 1 1
  21  1 1 1 1 1 1 1 1 1 1 1 1 1 1 1 1 1 1 1 1 1 1 1 1 1 1 1 1 1 1 1 1 1 1 1 2 3 3 3 2 1 1 1 1 1 1 1 1 1 1
  22  1 1 1 1 1 1 1 1 1 1 1 1 1 1 1 1 1 1 1 1 1 1 1 1 1 1 1 1 1 1 1 1 1 1 1 3 0 0 0 3 1 1 1 1 1 1 1 1 1 1
  23  1 1 1 1 1 1 1 1 1 1 1 1 1 1 1 1 1 1 1 1 1 1 1 1 1 1 1 1 1 1 1 1 1 1 1 3 0 0 0 3 1 1 1 1 1 1 1 1 1 1
  24  1 1 1 1 1 1 1 1 1 1 1 1 1 1 1 1 1 1 1 1 1 1 1 1 1 1 1 1 1 1 1 1 1 1 1 3 0 0 0 3 1 1 1 1 1 1 1 1 1 1
  25  1 1 1 1 1 1 1 1 1 1 1 1 1 1 1 1 1 1 1 1 1 1 1 1 1 1 1 1 1 1 1 1 1 1 1 2 3 3 3 2 1 1 1 1 1 1 1 1 1 1
  26  1 1 1 1 1 1 1 1 1 1 1 1 1 1 1 1 1 1 1 1 1 1 1 1 1 1 1 1 1 1 1 1 1 1 1 1 1 1 1 1 1 1 1 1 1 1 1 1 1 1
  27  1 1 1 1 1 1 1 1 1 1 1 1 1 1 1 1 1 1 1 1 1 1 1 1 1 1 1 1 1 1 1 1 1 1 1 1 1 1 1 1 1 1 1 1 1 1 1 1 1 1
  28  1 1 1 1 1 1 1 1 1 1 1 1 1 1 1 1 1 1 1 1 1 1 1 1 1 1 1 1 1 1 1 1 1 1 1 1 1 1 1 1 1 1 1 1 1 1 1 1 1 1
  29  1 1 1 1 1 1 1 1 1 1 1 1 1 1 1 1 1 1 1 1 1 1 1 1 1 1 1 1 1 1 1 1 1 1 1 1 1 1 1 1 1 1 1 1 1 1 1 1 1 1
  30  1 1 1 1 1 1 1 1 1 1 1 1 1 1 1 1 1 1 1 1 1 1 1 1 1 1 1 1 1 1 1 1 1 1 1 1 1 1 1 1 1 1 1 1 1 1 1 1 1 1

 BCF -- BLOCK-CENTERED FLOW PACKAGE, VERSION 7, 5/2/2005
         INPUT READ FROM UNIT 66
 STEADY-STATE SIMULATION
 HEAD AT CELLS THAT CONVERT TO DRY=   0.0000    
 WETTING CAPABILITY IS ACTIVE
 WETTING FACTOR=   1.00000     WETTING ITERATION INTERVAL=   1
 FLAG THAT SPECIFIES THE EQUATION TO USE FOR HEAD AT WETTED CELLS=   0
      LAYER  LAYER-TYPE CODE     INTERBLOCK T
      --------------------------------------------
         1            0          0 -- HARMONIC    

 COLUMN TO ROW ANISOTROPY =   1.00000    



               TRANSMIS. ALONG ROWS FOR LAYER   1
 READING ON UNIT   66 WITH FORMAT: (10F10.0)           

           1       2       3       4       5       6       7       8       9      10      11      12      13      14      15
          16      17      18      19      20      21      22      23      24      25      26      27      28      29      30
          31      32      33      34      35      36      37      38      39      40      41      42      43      44      45
          46      47      48      49      50
 ...........................................................................................................................
   1  8000.00 8000.00 8000.00 8000.00 8000.00 8000.00 8000.00 8000.00 8000.00 8000.00 8000.00 8000.00 8000.00 8000.00 8000.00
      8000.00 8000.00 8000.00 8000.00 8000.00 8000.00 8000.00 8000.00 8000.00 8000.00 2000.00 2000.00 2000.00 2000.00 2000.00
      2000.00 2000.00 2000.00 2000.00 2000.00 2000.00 2000.00 2000.00 2000.00 2000.00 2000.00 2000.00 2000.00 2000.00 2000.00
      2000.00 2000.00 2000.00 2000.00 2000.00
   2  8000.00 8000.00 8000.00 8000.00 8000.00 8000.00 8000.00 8000.00 8000.00 8000.00 8000.00 8000.00 8000.00 8000.00 8000.00
      8000.00 8000.00 8000.00 8000.00 8000.00 8000.00 8000.00 8000.00 8000.00 8000.00 2000.00 2000.00 2000.00 2000.00 2000.00
      2000.00 2000.00 2000.00 2000.00 2000.00 2000.00 2000.00 2000.00 2000.00 2000.00 2000.00 2000.00 2000.00 2000.00 2000.00
      2000.00 2000.00 2000.00 2000.00 2000.00
   3  8000.00 8000.00 8000.00 8000.00 8000.00 8000.00 8000.00 8000.00 8000.00 8000.00 8000.00 8000.00 8000.00 8000.00 8000.00
      8000.00 8000.00 8000.00 8000.00 8000.00 8000.00 8000.00 8000.00 8000.00 8000.00 2000.00 2000.00 2000.00 2000.00 2000.00
      2000.00 2000.00 2000.00 2000.00 2000.00 2000.00 2000.00 2000.00 2000.00 2000.00 2000.00 2000.00 2000.00 2000.00 2000.00
      2000.00 2000.00 2000.00 2000.00 2000.00
   4  8000.00 8000.00 8000.00 8000.00 8000.00 8000.00 8000.00 8000.00 8000.00 8000.00 8000.00 8000.00 8000.00 8000.00 8000.00
      8000.00 8000.00 8000.00 8000.00 8000.00 8000.00 8000.00 8000.00 8000.00 8000.00 2000.00 2000.00 2000.00 2000.00 2000.00
      2000.00 2000.00 2000.00 2000.00 2000.00 2000.00 2000.00 2000.00 2000.00 2000.00 2000.00 2000.00 2000.00 2000.00 2000.00
      2000.00 2000.00 2000.00 2000.00 2000.00
   5  8000.00 8000.00 8000.00 8000.00 8000.00 8000.00 8000.00 8000.00 8000.00 8000.00 8000.00 8000.00 8000.00 8000.00 8000.00
      8000.00 8000.00 8000.00 8000.00 8000.00 8000.00 8000.00 8000.00 8000.00 8000.00 2000.00 2000.00 2000.00 2000.00 2000.00
      2000.00 2000.00 2000.00 2000.00 2000.00 2000.00 2000.00 2000.00 2000.00 2000.00 2000.00 2000.00 2000.00 2000.00 2000.00
      2000.00 2000.00 2000.00 2000.00 2000.00
   6  8000.00 8000.00 8000.00 8000.00 8000.00 8000.00 8000.00 8000.00 8000.00 8000.00 8000.00 8000.00 8000.00 8000.00 8000.00
      8000.00 8000.00 8000.00 8000.00 8000.00 8000.00 8000.00 8000.00 8000.00 8000.00 2000.00 2000.00 2000.00 2000.00 2000.00
      2000.00 2000.00 2000.00 2000.00 2000.00 2000.00 2000.00 2000.00 2000.00 2000.00 2000.00 2000.00 2000.00 2000.00 2000.00
      2000.00 2000.00 2000.00 2000.00 2000.00
   7  8000.00 8000.00 8000.00 8000.00 8000.00 8000.00 8000.00 8000.00 8000.00 8000.00 8000.00 8000.00 8000.00 8000.00 8000.00
      8000.00 8000.00 8000.00 8000.00 8000.00 8000.00 8000.00 8000.00 8000.00 8000.00 2000.00 2000.00 2000.00 2000.00 2000.00
      2000.00 2000.00 2000.00 2000.00 2000.00 2000.00 2000.00 2000.00 2000.00 2000.00 2000.00 2000.00 2000.00 2000.00 2000.00
      2000.00 2000.00 2000.00 2000.00 2000.00
   8  8000.00 8000.00 8000.00 8000.00 8000.00 8000.00 8000.00 8000.00 8000.00 8000.00 8000.00 8000.00 8000.00 8000.00 8000.00
      8000.00 8000.00 8000.00 8000.00 8000.00 8000.00 8000.00 8000.00 8000.00 8000.00 2000.00 2000.00 2000.00 2000.00 2000.00
      2000.00 2000.00 2000.00 2000.00 2000.00 2000.00 2000.00 2000.00 2000.00 2000.00 2000.00 2000.00 2000.00 2000.00 2000.00
      2000.00 2000.00 2000.00 2000.00 2000.00
   9  8000.00 8000.00 8000.00 8000.00 8000.00 8000.00 8000.00 8000.00 8000.00 8000.00 8000.00 8000.00 8000.00 8000.00 8000.00
      8000.00 8000.00 8000.00 8000.00 8000.00 8000.00 8000.00 8000.00 8000.00 8000.00 2000.00 2000.00 2000.00 2000.00 2000.00
      2000.00 2000.00 2000.00 2000.00 2000.00 2000.00 2000.00 2000.00 2000.00 2000.00 2000.00 2000.00 2000.00 2000.00 2000.00
      2000.00 2000.00 2000.00 2000.00 2000.00
  10  8000.00 8000.00 8000.00 8000.00 8000.00 8000.00 8000.00 8000.00 8000.00 8000.00 8000.00 8000.00 8000.00 8000.00 8000.00
      8000.00 8000.00 8000.00 8000.00 8000.00 8000.00 8000.00 8000.00 8000.00 8000.00 2000.00 2000.00 2000.00 2000.00 2000.00
      2000.00 2000.00 2000.00 2000.00 2000.00 2000.00 2000.00 2000.00 2000.00 2000.00 2000.00 2000.00 2000.00 2000.00 2000.00
      2000.00 2000.00 2000.00 2000.00 2000.00
  11  8000.00 8000.00 8000.00 8000.00 8000.00 8000.00 8000.00 8000.00 8000.00 8000.00 8000.00 8000.00 8000.00 8000.00 8000.00
      8000.00 8000.00 8000.00 8000.00 8000.00 8000.00 8000.00 8000.00 8000.00 8000.00 2000.00 2000.00 2000.00 2000.00 2000.00
      2000.00 2000.00 2000.00 2000.00 2000.00 2000.00 2000.00 2000.00 2000.00 2000.00 2000.00 2000.00 2000.00 2000.00 2000.00
      2000.00 2000.00 2000.00 2000.00 2000.00
  12  8000.00 8000.00 8000.00 8000.00 8000.00 8000.00 8000.00 8000.00 8000.00 8000.00 8000.00 8000.00 8000.00 8000.00 8000.00
      8000.00 8000.00 8000.00 8000.00 8000.00 8000.00 8000.00 8000.00 8000.00 8000.00 2000.00 2000.00 2000.00 2000.00 2000.00
      2000.00 2000.00 2000.00 2000.00 2000.00 2000.00 2000.00 2000.00 2000.00 2000.00 2000.00 2000.00 2000.00 2000.00 2000.00
      2000.00 2000.00 2000.00 2000.00 2000.00
  13  8000.00 8000.00 8000.00 8000.00 8000.00 8000.00 8000.00 8000.00 8000.00 8000.00 8000.00 8000.00 8000.00 8000.00 8000.00
      8000.00 8000.00 8000.00 8000.00 8000.00 8000.00 8000.00 8000.00 8000.00 8000.00 2000.00 2000.00 2000.00 2000.00 2000.00
      2000.00 2000.00 2000.00 2000.00 2000.00 2000.00 2000.00 2000.00 2000.00 2000.00 2000.00 2000.00 2000.00 2000.00 2000.00
      2000.00 2000.00 2000.00 2000.00 2000.00
  14  8000.00 8000.00 8000.00 8000.00 8000.00 8000.00 8000.00 8000.00 8000.00 8000.00 8000.00 8000.00 8000.00 8000.00 8000.00
      8000.00 8000.00 8000.00 8000.00 8000.00 8000.00 8000.00 8000.00 8000.00 8000.00 2000.00 2000.00 2000.00 2000.00 2000.00
      2000.00 2000.00 2000.00 2000.00 2000.00 2000.00 2000.00 2000.00 2000.00 2000.00 2000.00 2000.00 2000.00 2000.00 2000.00
      2000.00 2000.00 2000.00 2000.00 2000.00
  15  8000.00 8000.00 8000.00 8000.00 8000.00 8000.00 8000.00 8000.00 8000.00 8000.00 8000.00 8000.00 8000.00 8000.00 8000.00
      8000.00 8000.00 8000.00 8000.00 8000.00 8000.00 8000.00 8000.00 8000.00 8000.00 2000.00 2000.00 2000.00 2000.00 2000.00
      2000.00 2000.00 2000.00 2000.00 2000.00 2000.00 2000.00 2000.00 2000.00 2000.00 2000.00 2000.00 2000.00 2000.00 2000.00
      2000.00 2000.00 2000.00 2000.00 2000.00
  16  8000.00 8000.00 8000.00 8000.00 8000.00 8000.00 8000.00 8000.00 8000.00 8000.00 8000.00 8000.00 8000.00 8000.00 8000.00
      8000.00 8000.00 8000.00 8000.00 8000.00 8000.00 8000.00 8000.00 8000.00 8000.00 2000.00 2000.00 2000.00 2000.00 2000.00
      2000.00 2000.00 2000.00 2000.00 2000.00 2000.00 2000.00 2000.00 2000.00 2000.00 2000.00 2000.00 2000.00 2000.00 2000.00
      2000.00 2000.00 2000.00 2000.00 2000.00
  17  8000.00 8000.00 8000.00 8000.00 8000.00 8000.00 8000.00 8000.00 8000.00 8000.00 8000.00 8000.00 8000.00 8000.00 8000.00
      8000.00 8000.00 8000.00 8000.00 8000.00 8000.00 8000.00 8000.00 8000.00 8000.00 2000.00 2000.00 2000.00 2000.00 2000.00
      2000.00 2000.00 2000.00 2000.00 2000.00 2000.00 2000.00 2000.00 2000.00 2000.00 2000.00 2000.00 2000.00 2000.00 2000.00
      2000.00 2000.00 2000.00 2000.00 2000.00
  18  8000.00 8000.00 8000.00 8000.00 8000.00 8000.00 8000.00 8000.00 8000.00 8000.00 8000.00 8000.00 8000.00 8000.00 8000.00
      8000.00 8000.00 8000.00 8000.00 8000.00 8000.00 8000.00 8000.00 8000.00 8000.00 2000.00 2000.00 2000.00 2000.00 2000.00
      2000.00 2000.00 2000.00 2000.00 2000.00 2000.00 2000.00 2000.00 2000.00 2000.00 2000.00 2000.00 2000.00 2000.00 2000.00
      2000.00 2000.00 2000.00 2000.00 2000.00
  19  8000.00 8000.00 8000.00 8000.00 8000.00 8000.00 8000.00 8000.00 8000.00 8000.00 8000.00 8000.00 8000.00 8000.00 8000.00
      8000.00 8000.00 8000.00 8000.00 8000.00 8000.00 8000.00 8000.00 8000.00 8000.00 2000.00 2000.00 2000.00 2000.00 2000.00
      2000.00 2000.00 2000.00 2000.00 2000.00 2000.00 2000.00 2000.00 2000.00 2000.00 2000.00 2000.00 2000.00 2000.00 2000.00
      2000.00 2000.00 2000.00 2000.00 2000.00
  20  8000.00 8000.00 8000.00 8000.00 8000.00 8000.00 8000.00 8000.00 8000.00 8000.00 8000.00 8000.00 8000.00 8000.00 8000.00
      8000.00 8000.00 8000.00 8000.00 8000.00 8000.00 8000.00 8000.00 8000.00 8000.00 2000.00 2000.00 2000.00 2000.00 2000.00
      2000.00 2000.00 2000.00 2000.00 2000.00 2000.00 2000.00 2000.00 2000.00 2000.00 2000.00 2000.00 2000.00 2000.00 2000.00
      2000.00 2000.00 2000.00 2000.00 2000.00
  21  8000.00 8000.00 8000.00 8000.00 8000.00 8000.00 8000.00 8000.00 8000.00 8000.00 8000.00 8000.00 8000.00 8000.00 8000.00
      8000.00 8000.00 8000.00 8000.00 8000.00 8000.00 8000.00 8000.00 8000.00 8000.00 2000.00 2000.00 2000.00 2000.00 2000.00
      2000.00 2000.00 2000.00 2000.00 2000.00 2000.00 2000.00 2000.00 2000.00 2000.00 2000.00 2000.00 2000.00 2000.00 2000.00
      2000.00 2000.00 2000.00 2000.00 2000.00
  22  8000.00 8000.00 8000.00 8000.00 8000.00 8000.00 8000.00 8000.00 8000.00 8000.00 8000.00 8000.00 8000.00 8000.00 8000.00
      8000.00 8000.00 8000.00 8000.00 8000.00 8000.00 8000.00 8000.00 8000.00 8000.00 2000.00 2000.00 2000.00 2000.00 2000.00
      2000.00 2000.00 2000.00 2000.00 2000.00 2000.00 2000.00 2000.00 2000.00 2000.00 2000.00 2000.00 2000.00 2000.00 2000.00
      2000.00 2000.00 2000.00 2000.00 2000.00
  23  8000.00 8000.00 8000.00 8000.00 8000.00 8000.00 8000.00 8000.00 8000.00 8000.00 8000.00 8000.00 8000.00 8000.00 8000.00
      8000.00 8000.00 8000.00 8000.00 8000.00 8000.00 8000.00 8000.00 8000.00 8000.00 2000.00 2000.00 2000.00 2000.00 2000.00
      2000.00 2000.00 2000.00 2000.00 2000.00 2000.00 2000.00 2000.00 2000.00 2000.00 2000.00 2000.00 2000.00 2000.00 2000.00
      2000.00 2000.00 2000.00 2000.00 2000.00
  24  8000.00 8000.00 8000.00 8000.00 8000.00 8000.00 8000.00 8000.00 8000.00 8000.00 8000.00 8000.00 8000.00 8000.00 8000.00
      8000.00 8000.00 8000.00 8000.00 8000.00 8000.00 8000.00 8000.00 8000.00 8000.00 2000.00 2000.00 2000.00 2000.00 2000.00
      2000.00 2000.00 2000.00 2000.00 2000.00 2000.00 2000.00 2000.00 2000.00 2000.00 2000.00 2000.00 2000.00 2000.00 2000.00
      2000.00 2000.00 2000.00 2000.00 2000.00
  25  8000.00 8000.00 8000.00 8000.00 8000.00 8000.00 8000.00 8000.00 8000.00 8000.00 8000.00 8000.00 8000.00 8000.00 8000.00
      8000.00 8000.00 8000.00 8000.00 8000.00 8000.00 8000.00 8000.00 8000.00 8000.00 2000.00 2000.00 2000.00 2000.00 2000.00
      2000.00 2000.00 2000.00 2000.00 2000.00 2000.00 2000.00 2000.00 2000.00 2000.00 2000.00 2000.00 2000.00 2000.00 2000.00
      2000.00 2000.00 2000.00 2000.00 2000.00
  26  8000.00 8000.00 8000.00 8000.00 8000.00 8000.00 8000.00 8000.00 8000.00 8000.00 8000.00 8000.00 8000.00 8000.00 8000.00
      8000.00 8000.00 8000.00 8000.00 8000.00 8000.00 8000.00 8000.00 8000.00 8000.00 2000.00 2000.00 2000.00 2000.00 2000.00
      2000.00 2000.00 2000.00 2000.00 2000.00 2000.00 2000.00 2000.00 2000.00 2000.00 2000.00 2000.00 2000.00 2000.00 2000.00
      2000.00 2000.00 2000.00 2000.00 2000.00
  27  8000.00 8000.00 8000.00 8000.00 8000.00 8000.00 8000.00 8000.00 8000.00 8000.00 8000.00 8000.00 8000.00 8000.00 8000.00
      8000.00 8000.00 8000.00 8000.00 8000.00 8000.00 8000.00 8000.00 8000.00 8000.00 2000.00 2000.00 2000.00 2000.00 2000.00
      2000.00 2000.00 2000.00 2000.00 2000.00 2000.00 2000.00 2000.00 2000.00 2000.00 2000.00 2000.00 2000.00 2000.00 2000.00
      2000.00 2000.00 2000.00 2000.00 2000.00
  28  8000.00 8000.00 8000.00 8000.00 8000.00 8000.00 8000.00 8000.00 8000.00 8000.00 8000.00 8000.00 8000.00 8000.00 8000.00
      8000.00 8000.00 8000.00 8000.00 8000.00 8000.00 8000.00 8000.00 8000.00 8000.00 2000.00 2000.00 2000.00 2000.00 2000.00
      2000.00 2000.00 2000.00 2000.00 2000.00 2000.00 2000.00 2000.00 2000.00 2000.00 2000.00 2000.00 2000.00 2000.00 2000.00
      2000.00 2000.00 2000.00 2000.00 2000.00
  29  8000.00 8000.00 8000.00 8000.00 8000.00 8000.00 8000.00 8000.00 8000.00 8000.00 8000.00 8000.00 8000.00 8000.00 8000.00
      8000.00 8000.00 8000.00 8000.00 8000.00 8000.00 8000.00 8000.00 8000.00 8000.00 2000.00 2000.00 2000.00 2000.00 2000.00
      2000.00 2000.00 2000.00 2000.00 2000.00 2000.00 2000.00 2000.00 2000.00 2000.00 2000.00 2000.00 2000.00 2000.00 2000.00
      2000.00 2000.00 2000.00 2000.00 2000.00
  30  8000.00 8000.00 8000.00 8000.00 8000.00 8000.00 8000.00 8000.00 8000.00 8000.00 8000.00 8000.00 8000.00 8000.00 8000.00
      8000.00 8000.00 8000.00 8000.00 8000.00 8000.00 8000.00 8000.00 8000.00 8000.00 2000.00 2000.00 2000.00 2000.00 2000.00
      2000.00 2000.00 2000.00 2000.00 2000.00 2000.00 2000.00 2000.00 2000.00 2000.00 2000.00 2000.00 2000.00 2000.00 2000.00
      2000.00 2000.00 2000.00 2000.00 2000.00

 RCH -- RECHARGE PACKAGE, VERSION 7, 5/2/2005 INPUT READ FROM UNIT   16
 #SUP3G Sample Problem, parent RECH file
 #Zone required for overlap with children
 #Modified August 2013 for LGR2
     3 Named Parameters     
 OPTION 1 -- RECHARGE TO TOP LAYER


     3 Recharge parameters

 PARAMETER NAME:REC-P1       TYPE:RCH    CLUSTERS:   1
 Parameter value from package file is:   1.00000E-03
                MULTIPLIER ARRAY: NONE    ZONE ARRAY: RCHZONE
                ZONE VALUES:    1

 PARAMETER NAME:REC-P2       TYPE:RCH    CLUSTERS:   1
 Parameter value from package file is:   1.00000E-03
                MULTIPLIER ARRAY: NONE    ZONE ARRAY: RCHZONE
                ZONE VALUES:    2

 PARAMETER NAME:REC-P3       TYPE:RCH    CLUSTERS:   1
 Parameter value from package file is:   1.00000E-03
                MULTIPLIER ARRAY: NONE    ZONE ARRAY: RCHZONE
                ZONE VALUES:    3
1
                            STRESS PERIOD NO.    1, LENGTH =   1000.000    
                            -----------------------------------------------

                              NUMBER OF TIME STEPS =     1

                               MULTIPLIER FOR DELT =     1.000

                            INITIAL TIME STEP SIZE =   1000.000    



 RECH array defined by the following parameters:
 Parameter:  REC-P1
 Parameter:  REC-P2
 Parameter:  REC-P3


                           RECHARGE

            1           2           3           4           5           6           7           8           9          10
           11          12          13          14          15          16          17          18          19          20
           21          22          23          24          25          26          27          28          29          30
           31          32          33          34          35          36          37          38          39          40
           41          42          43          44          45          46          47          48          49          50
 ........................................................................................................................
   1   1.0000E-03  1.0000E-03  1.0000E-03  1.0000E-03  1.0000E-03  1.0000E-03  1.0000E-03  1.0000E-03  1.0000E-03  1.0000E-03
       1.0000E-03  1.0000E-03  1.0000E-03  1.0000E-03  1.0000E-03  1.0000E-03  1.0000E-03  1.0000E-03  1.0000E-03  1.0000E-03
       1.0000E-03  1.0000E-03  1.0000E-03  1.0000E-03  1.0000E-03  1.0000E-03  1.0000E-03  1.0000E-03  1.0000E-03  1.0000E-03
       1.0000E-03  1.0000E-03  1.0000E-03  1.0000E-03  1.0000E-03  1.0000E-03  1.0000E-03  1.0000E-03  1.0000E-03  1.0000E-03
       1.0000E-03  1.0000E-03  1.0000E-03  1.0000E-03  1.0000E-03  1.0000E-03  1.0000E-03  1.0000E-03  1.0000E-03  1.0000E-03
   2   1.0000E-03  1.0000E-03  1.0000E-03  1.0000E-03  1.0000E-03  1.0000E-03  1.0000E-03  1.0000E-03  1.0000E-03  1.0000E-03
       1.0000E-03  1.0000E-03  1.0000E-03  1.0000E-03  1.0000E-03  1.0000E-03  1.0000E-03  1.0000E-03  1.0000E-03  1.0000E-03
       1.0000E-03  1.0000E-03  1.0000E-03  1.0000E-03  1.0000E-03  1.0000E-03  1.0000E-03  1.0000E-03  1.0000E-03  1.0000E-03
       1.0000E-03  1.0000E-03  1.0000E-03  1.0000E-03  1.0000E-03  1.0000E-03  1.0000E-03  1.0000E-03  1.0000E-03  1.0000E-03
       1.0000E-03  1.0000E-03  1.0000E-03  1.0000E-03  1.0000E-03  1.0000E-03  1.0000E-03  1.0000E-03  1.0000E-03  1.0000E-03
   3   1.0000E-03  1.0000E-03  1.0000E-03  1.0000E-03  1.0000E-03  1.0000E-03  1.0000E-03  1.0000E-03  1.0000E-03  1.0000E-03
       1.0000E-03  1.0000E-03  1.0000E-03  1.0000E-03  1.0000E-03  1.0000E-03  1.0000E-03  1.0000E-03  1.0000E-03  1.0000E-03
       1.0000E-03  1.0000E-03  1.0000E-03  1.0000E-03  1.0000E-03  1.0000E-03  1.0000E-03  1.0000E-03  1.0000E-03  1.0000E-03
       1.0000E-03  1.0000E-03  1.0000E-03  1.0000E-03  1.0000E-03  1.0000E-03  1.0000E-03  1.0000E-03  1.0000E-03  1.0000E-03
       1.0000E-03  1.0000E-03  1.0000E-03  1.0000E-03  1.0000E-03  1.0000E-03  1.0000E-03  1.0000E-03  1.0000E-03  1.0000E-03
   4   1.0000E-03  1.0000E-03  1.0000E-03  1.0000E-03  1.0000E-03  1.0000E-03  1.0000E-03  1.0000E-03  1.0000E-03  1.0000E-03
       1.0000E-03  1.0000E-03  1.0000E-03  1.0000E-03  1.0000E-03  1.0000E-03  1.0000E-03  1.0000E-03  1.0000E-03  1.0000E-03
       1.0000E-03  1.0000E-03  1.0000E-03  1.0000E-03  1.0000E-03  1.0000E-03  1.0000E-03  1.0000E-03  1.0000E-03  1.0000E-03
       1.0000E-03  1.0000E-03  1.0000E-03  1.0000E-03  1.0000E-03  1.0000E-03  1.0000E-03  1.0000E-03  1.0000E-03  1.0000E-03
       1.0000E-03  1.0000E-03  1.0000E-03  1.0000E-03  1.0000E-03  1.0000E-03  1.0000E-03  1.0000E-03  1.0000E-03  1.0000E-03
   5   1.0000E-03  1.0000E-03  1.0000E-03  1.0000E-03  1.0000E-03  1.0000E-03  1.0000E-03  1.0000E-03  1.0000E-03  1.0000E-03
       1.0000E-03  1.0000E-03  1.0000E-03  1.0000E-03  1.0000E-03  1.0000E-03  1.0000E-03  1.0000E-03  1.0000E-03  1.0000E-03
       1.0000E-03  1.0000E-03  1.0000E-03  1.0000E-03  1.0000E-03  1.0000E-03  1.0000E-03  1.0000E-03  1.0000E-03  1.0000E-03
       1.0000E-03  1.0000E-03  1.0000E-03  1.0000E-03  1.0000E-03  1.0000E-03  1.0000E-03  1.0000E-03  1.0000E-03  1.0000E-03
       1.0000E-03  1.0000E-03  1.0000E-03  1.0000E-03  1.0000E-03  1.0000E-03  1.0000E-03  1.0000E-03  1.0000E-03  1.0000E-03
   6   1.0000E-03  1.0000E-03  1.0000E-03  1.0000E-03  1.0000E-03  1.0000E-03  1.0000E-03  1.0000E-03  1.0000E-03  1.0000E-03
       1.0000E-03  1.0000E-03  1.0000E-03  1.0000E-03  1.0000E-03  1.0000E-03  1.0000E-03  1.0000E-03  1.0000E-03  1.0000E-03
       1.0000E-03  1.0000E-03  1.0000E-03  1.0000E-03  1.0000E-03  1.0000E-03  1.0000E-03  1.0000E-03  1.0000E-03  1.0000E-03
       1.0000E-03  1.0000E-03  1.0000E-03  1.0000E-03  1.0000E-03  1.0000E-03  1.0000E-03  1.0000E-03  1.0000E-03  1.0000E-03
       1.0000E-03  1.0000E-03  1.0000E-03  1.0000E-03  1.0000E-03  1.0000E-03  1.0000E-03  1.0000E-03  1.0000E-03  1.0000E-03
   7   1.0000E-03  1.0000E-03  1.0000E-03  1.0000E-03  1.0000E-03  1.0000E-03   0.000       0.000       0.000       0.000    
        0.000       0.000       0.000       0.000      1.0000E-03  1.0000E-03  1.0000E-03  1.0000E-03  1.0000E-03  1.0000E-03
       1.0000E-03  1.0000E-03  1.0000E-03  1.0000E-03  1.0000E-03  1.0000E-03  1.0000E-03  1.0000E-03  1.0000E-03  1.0000E-03
       1.0000E-03  1.0000E-03  1.0000E-03  1.0000E-03  1.0000E-03  1.0000E-03   0.000       0.000       0.000      1.0000E-03
       1.0000E-03  1.0000E-03  1.0000E-03  1.0000E-03  1.0000E-03  1.0000E-03  1.0000E-03  1.0000E-03  1.0000E-03  1.0000E-03
   8   1.0000E-03  1.0000E-03  1.0000E-03  1.0000E-03  1.0000E-03  1.0000E-03   0.000       0.000       0.000       0.000    
        0.000       0.000       0.000       0.000      1.0000E-03  1.0000E-03  1.0000E-03  1.0000E-03  1.0000E-03  1.0000E-03
       1.0000E-03  1.0000E-03  1.0000E-03  1.0000E-03  1.0000E-03  1.0000E-03  1.0000E-03  1.0000E-03  1.0000E-03  1.0000E-03
       1.0000E-03  1.0000E-03  1.0000E-03  1.0000E-03  1.0000E-03  1.0000E-03   0.000       0.000       0.000      1.0000E-03
       1.0000E-03  1.0000E-03  1.0000E-03  1.0000E-03  1.0000E-03  1.0000E-03  1.0000E-03  1.0000E-03  1.0000E-03  1.0000E-03
   9   1.0000E-03  1.0000E-03  1.0000E-03  1.0000E-03  1.0000E-03  1.0000E-03   0.000       0.000       0.000       0.000    
        0.000       0.000       0.000       0.000      1.0000E-03  1.0000E-03  1.0000E-03  1.0000E-03  1.0000E-03  1.0000E-03
       1.0000E-03  1.0000E-03  1.0000E-03  1.0000E-03  1.0000E-03  1.0000E-03  1.0000E-03  1.0000E-03  1.0000E-03  1.0000E-03
       1.0000E-03  1.0000E-03  1.0000E-03  1.0000E-03  1.0000E-03  1.0000E-03   0.000       0.000       0.000      1.0000E-03
       1.0000E-03  1.0000E-03  1.0000E-03  1.0000E-03  1.0000E-03  1.0000E-03  1.0000E-03  1.0000E-03  1.0000E-03  1.0000E-03
  10   1.0000E-03  1.0000E-03  1.0000E-03  1.0000E-03  1.0000E-03  1.0000E-03   0.000       0.000       0.000       0.000    
        0.000       0.000       0.000       0.000      1.0000E-03  1.0000E-03  1.0000E-03  1.0000E-03  1.0000E-03  1.0000E-03
       1.0000E-03  1.0000E-03  1.0000E-03  1.0000E-03  1.0000E-03  1.0000E-03  1.0000E-03  1.0000E-03  1.0000E-03  1.0000E-03
       1.0000E-03  1.0000E-03  1.0000E-03  1.0000E-03  1.0000E-03  1.0000E-03  1.0000E-03  1.0000E-03  1.0000E-03  1.0000E-03
       1.0000E-03  1.0000E-03  1.0000E-03  1.0000E-03  1.0000E-03  1.0000E-03  1.0000E-03  1.0000E-03  1.0000E-03  1.0000E-03
  11   1.0000E-03  1.0000E-03  1.0000E-03  1.0000E-03  1.0000E-03  1.0000E-03   0.000       0.000       0.000       0.000    
        0.000       0.000       0.000       0.000      1.0000E-03  1.0000E-03  1.0000E-03  1.0000E-03  1.0000E-03  1.0000E-03
       1.0000E-03  1.0000E-03  1.0000E-03  1.0000E-03  1.0000E-03  1.0000E-03  1.0000E-03  1.0000E-03  1.0000E-03  1.0000E-03
       1.0000E-03  1.0000E-03  1.0000E-03  1.0000E-03  1.0000E-03  1.0000E-03  1.0000E-03  1.0000E-03  1.0000E-03  1.0000E-03
       1.0000E-03  1.0000E-03  1.0000E-03  1.0000E-03  1.0000E-03  1.0000E-03  1.0000E-03  1.0000E-03  1.0000E-03  1.0000E-03
  12   1.0000E-03  1.0000E-03  1.0000E-03  1.0000E-03  1.0000E-03  1.0000E-03   0.000       0.000       0.000       0.000    
        0.000       0.000       0.000       0.000      1.0000E-03  1.0000E-03  1.0000E-03  1.0000E-03  1.0000E-03  1.0000E-03
       1.0000E-03  1.0000E-03  1.0000E-03  1.0000E-03  1.0000E-03  1.0000E-03  1.0000E-03  1.0000E-03  1.0000E-03  1.0000E-03
       1.0000E-03  1.0000E-03  1.0000E-03  1.0000E-03  1.0000E-03  1.0000E-03  1.0000E-03  1.0000E-03  1.0000E-03  1.0000E-03
       1.0000E-03  1.0000E-03  1.0000E-03  1.0000E-03  1.0000E-03  1.0000E-03  1.0000E-03  1.0000E-03  1.0000E-03  1.0000E-03
  13   1.0000E-03  1.0000E-03  1.0000E-03  1.0000E-03  1.0000E-03  1.0000E-03   0.000       0.000       0.000       0.000    
        0.000       0.000       0.000       0.000      1.0000E-03  1.0000E-03  1.0000E-03  1.0000E-03  1.0000E-03  1.0000E-03
       1.0000E-03  1.0000E-03  1.0000E-03  1.0000E-03  1.0000E-03  1.0000E-03  1.0000E-03  1.0000E-03  1.0000E-03  1.0000E-03
       1.0000E-03  1.0000E-03  1.0000E-03  1.0000E-03  1.0000E-03  1.0000E-03  1.0000E-03  1.0000E-03  1.0000E-03  1.0000E-03
       1.0000E-03  1.0000E-03  1.0000E-03  1.0000E-03  1.0000E-03  1.0000E-03  1.0000E-03  1.0000E-03  1.0000E-03  1.0000E-03
  14   1.0000E-03  1.0000E-03  1.0000E-03  1.0000E-03  1.0000E-03  1.0000E-03   0.000       0.000       0.000       0.000    
        0.000       0.000       0.000       0.000      1.0000E-03  1.0000E-03  1.0000E-03  1.0000E-03  1.0000E-03  1.0000E-03
       1.0000E-03  1.0000E-03  1.0000E-03  1.0000E-03  1.0000E-03  1.0000E-03  1.0000E-03  1.0000E-03  1.0000E-03  1.0000E-03
       1.0000E-03  1.0000E-03  1.0000E-03  1.0000E-03  1.0000E-03  1.0000E-03  1.0000E-03  1.0000E-03  1.0000E-03  1.0000E-03
       1.0000E-03  1.0000E-03  1.0000E-03  1.0000E-03  1.0000E-03  1.0000E-03  1.0000E-03  1.0000E-03  1.0000E-03  1.0000E-03
  15   1.0000E-03  1.0000E-03  1.0000E-03  1.0000E-03  1.0000E-03  1.0000E-03  1.0000E-03  1.0000E-03  1.0000E-03  1.0000E-03
       1.0000E-03  1.0000E-03  1.0000E-03  1.0000E-03  1.0000E-03  1.0000E-03  1.0000E-03  1.0000E-03  1.0000E-03  1.0000E-03
       1.0000E-03  1.0000E-03  1.0000E-03  1.0000E-03  1.0000E-03  1.0000E-03  1.0000E-03  1.0000E-03  1.0000E-03  1.0000E-03
       1.0000E-03  1.0000E-03  1.0000E-03  1.0000E-03  1.0000E-03  1.0000E-03  1.0000E-03  1.0000E-03  1.0000E-03  1.0000E-03
       1.0000E-03  1.0000E-03  1.0000E-03  1.0000E-03  1.0000E-03  1.0000E-03  1.0000E-03  1.0000E-03  1.0000E-03  1.0000E-03
  16   1.0000E-03  1.0000E-03  1.0000E-03  1.0000E-03  1.0000E-03  1.0000E-03  1.0000E-03  1.0000E-03  1.0000E-03  1.0000E-03
       1.0000E-03  1.0000E-03  1.0000E-03  1.0000E-03  1.0000E-03  1.0000E-03  1.0000E-03  1.0000E-03  1.0000E-03  1.0000E-03
       1.0000E-03  1.0000E-03  1.0000E-03  1.0000E-03  1.0000E-03  1.0000E-03  1.0000E-03  1.0000E-03  1.0000E-03  1.0000E-03
       1.0000E-03  1.0000E-03  1.0000E-03  1.0000E-03  1.0000E-03  1.0000E-03  1.0000E-03  1.0000E-03  1.0000E-03  1.0000E-03
       1.0000E-03  1.0000E-03  1.0000E-03  1.0000E-03  1.0000E-03  1.0000E-03  1.0000E-03  1.0000E-03  1.0000E-03  1.0000E-03
  17   1.0000E-03  1.0000E-03  1.0000E-03  1.0000E-03  1.0000E-03  1.0000E-03  1.0000E-03  1.0000E-03  1.0000E-03  1.0000E-03
       1.0000E-03  1.0000E-03  1.0000E-03  1.0000E-03  1.0000E-03  1.0000E-03  1.0000E-03  1.0000E-03  1.0000E-03  1.0000E-03
       1.0000E-03  1.0000E-03  1.0000E-03  1.0000E-03  1.0000E-03  1.0000E-03  1.0000E-03  1.0000E-03  1.0000E-03  1.0000E-03
       1.0000E-03  1.0000E-03  1.0000E-03  1.0000E-03  1.0000E-03  1.0000E-03  1.0000E-03  1.0000E-03  1.0000E-03  1.0000E-03
       1.0000E-03  1.0000E-03  1.0000E-03  1.0000E-03  1.0000E-03  1.0000E-03  1.0000E-03  1.0000E-03  1.0000E-03  1.0000E-03
  18   1.0000E-03  1.0000E-03  1.0000E-03  1.0000E-03  1.0000E-03  1.0000E-03  1.0000E-03  1.0000E-03  1.0000E-03  1.0000E-03
       1.0000E-03  1.0000E-03  1.0000E-03  1.0000E-03  1.0000E-03  1.0000E-03  1.0000E-03  1.0000E-03  1.0000E-03  1.0000E-03
       1.0000E-03  1.0000E-03  1.0000E-03  1.0000E-03  1.0000E-03  1.0000E-03  1.0000E-03  1.0000E-03  1.0000E-03  1.0000E-03
       1.0000E-03  1.0000E-03  1.0000E-03  1.0000E-03  1.0000E-03  1.0000E-03  1.0000E-03  1.0000E-03  1.0000E-03  1.0000E-03
       1.0000E-03  1.0000E-03  1.0000E-03  1.0000E-03  1.0000E-03  1.0000E-03  1.0000E-03  1.0000E-03  1.0000E-03  1.0000E-03
  19   1.0000E-03  1.0000E-03  1.0000E-03  1.0000E-03  1.0000E-03  1.0000E-03  1.0000E-03  1.0000E-03  1.0000E-03  1.0000E-03
       1.0000E-03  1.0000E-03  1.0000E-03  1.0000E-03  1.0000E-03  1.0000E-03  1.0000E-03  1.0000E-03  1.0000E-03  1.0000E-03
       1.0000E-03  1.0000E-03  1.0000E-03  1.0000E-03  1.0000E-03  1.0000E-03  1.0000E-03  1.0000E-03  1.0000E-03  1.0000E-03
       1.0000E-03  1.0000E-03  1.0000E-03  1.0000E-03  1.0000E-03  1.0000E-03  1.0000E-03  1.0000E-03  1.0000E-03  1.0000E-03
       1.0000E-03  1.0000E-03  1.0000E-03  1.0000E-03  1.0000E-03  1.0000E-03  1.0000E-03  1.0000E-03  1.0000E-03  1.0000E-03
  20   1.0000E-03  1.0000E-03  1.0000E-03  1.0000E-03  1.0000E-03  1.0000E-03  1.0000E-03  1.0000E-03  1.0000E-03  1.0000E-03
       1.0000E-03  1.0000E-03  1.0000E-03  1.0000E-03  1.0000E-03  1.0000E-03  1.0000E-03  1.0000E-03  1.0000E-03  1.0000E-03
       1.0000E-03  1.0000E-03  1.0000E-03  1.0000E-03  1.0000E-03  1.0000E-03  1.0000E-03  1.0000E-03  1.0000E-03  1.0000E-03
       1.0000E-03  1.0000E-03  1.0000E-03  1.0000E-03  1.0000E-03  1.0000E-03  1.0000E-03  1.0000E-03  1.0000E-03  1.0000E-03
       1.0000E-03  1.0000E-03  1.0000E-03  1.0000E-03  1.0000E-03  1.0000E-03  1.0000E-03  1.0000E-03  1.0000E-03  1.0000E-03
  21   1.0000E-03  1.0000E-03  1.0000E-03  1.0000E-03  1.0000E-03  1.0000E-03  1.0000E-03  1.0000E-03  1.0000E-03  1.0000E-03
       1.0000E-03  1.0000E-03  1.0000E-03  1.0000E-03  1.0000E-03  1.0000E-03  1.0000E-03  1.0000E-03  1.0000E-03  1.0000E-03
       1.0000E-03  1.0000E-03  1.0000E-03  1.0000E-03  1.0000E-03  1.0000E-03  1.0000E-03  1.0000E-03  1.0000E-03  1.0000E-03
       1.0000E-03  1.0000E-03  1.0000E-03  1.0000E-03  1.0000E-03  1.0000E-03  1.0000E-03  1.0000E-03  1.0000E-03  1.0000E-03
       1.0000E-03  1.0000E-03  1.0000E-03  1.0000E-03  1.0000E-03  1.0000E-03  1.0000E-03  1.0000E-03  1.0000E-03  1.0000E-03
  22   1.0000E-03  1.0000E-03  1.0000E-03  1.0000E-03  1.0000E-03  1.0000E-03  1.0000E-03  1.0000E-03  1.0000E-03  1.0000E-03
       1.0000E-03  1.0000E-03  1.0000E-03  1.0000E-03  1.0000E-03  1.0000E-03  1.0000E-03  1.0000E-03  1.0000E-03  1.0000E-03
       1.0000E-03  1.0000E-03  1.0000E-03  1.0000E-03  1.0000E-03  1.0000E-03  1.0000E-03  1.0000E-03  1.0000E-03  1.0000E-03
       1.0000E-03  1.0000E-03  1.0000E-03  1.0000E-03  1.0000E-03  1.0000E-03   0.000       0.000       0.000      1.0000E-03
       1.0000E-03  1.0000E-03  1.0000E-03  1.0000E-03  1.0000E-03  1.0000E-03  1.0000E-03  1.0000E-03  1.0000E-03  1.0000E-03
  23   1.0000E-03  1.0000E-03  1.0000E-03  1.0000E-03  1.0000E-03  1.0000E-03  1.0000E-03  1.0000E-03  1.0000E-03  1.0000E-03
       1.0000E-03  1.0000E-03  1.0000E-03  1.0000E-03  1.0000E-03  1.0000E-03  1.0000E-03  1.0000E-03  1.0000E-03  1.0000E-03
       1.0000E-03  1.0000E-03  1.0000E-03  1.0000E-03  1.0000E-03  1.0000E-03  1.0000E-03  1.0000E-03  1.0000E-03  1.0000E-03
       1.0000E-03  1.0000E-03  1.0000E-03  1.0000E-03  1.0000E-03  1.0000E-03   0.000       0.000       0.000      1.0000E-03
       1.0000E-03  1.0000E-03  1.0000E-03  1.0000E-03  1.0000E-03  1.0000E-03  1.0000E-03  1.0000E-03  1.0000E-03  1.0000E-03
  24   1.0000E-03  1.0000E-03  1.0000E-03  1.0000E-03  1.0000E-03  1.0000E-03  1.0000E-03  1.0000E-03  1.0000E-03  1.0000E-03
       1.0000E-03  1.0000E-03  1.0000E-03  1.0000E-03  1.0000E-03  1.0000E-03  1.0000E-03  1.0000E-03  1.0000E-03  1.0000E-03
       1.0000E-03  1.0000E-03  1.0000E-03  1.0000E-03  1.0000E-03  1.0000E-03  1.0000E-03  1.0000E-03  1.0000E-03  1.0000E-03
       1.0000E-03  1.0000E-03  1.0000E-03  1.0000E-03  1.0000E-03  1.0000E-03   0.000       0.000       0.000      1.0000E-03
       1.0000E-03  1.0000E-03  1.0000E-03  1.0000E-03  1.0000E-03  1.0000E-03  1.0000E-03  1.0000E-03  1.0000E-03  1.0000E-03
  25   1.0000E-03  1.0000E-03  1.0000E-03  1.0000E-03  1.0000E-03  1.0000E-03  1.0000E-03  1.0000E-03  1.0000E-03  1.0000E-03
       1.0000E-03  1.0000E-03  1.0000E-03  1.0000E-03  1.0000E-03  1.0000E-03  1.0000E-03  1.0000E-03  1.0000E-03  1.0000E-03
       1.0000E-03  1.0000E-03  1.0000E-03  1.0000E-03  1.0000E-03  1.0000E-03  1.0000E-03  1.0000E-03  1.0000E-03  1.0000E-03
       1.0000E-03  1.0000E-03  1.0000E-03  1.0000E-03  1.0000E-03  1.0000E-03  1.0000E-03  1.0000E-03  1.0000E-03  1.0000E-03
       1.0000E-03  1.0000E-03  1.0000E-03  1.0000E-03  1.0000E-03  1.0000E-03  1.0000E-03  1.0000E-03  1.0000E-03  1.0000E-03
  26   1.0000E-03  1.0000E-03  1.0000E-03  1.0000E-03  1.0000E-03  1.0000E-03  1.0000E-03  1.0000E-03  1.0000E-03  1.0000E-03
       1.0000E-03  1.0000E-03  1.0000E-03  1.0000E-03  1.0000E-03  1.0000E-03  1.0000E-03  1.0000E-03  1.0000E-03  1.0000E-03
       1.0000E-03  1.0000E-03  1.0000E-03  1.0000E-03  1.0000E-03  1.0000E-03  1.0000E-03  1.0000E-03  1.0000E-03  1.0000E-03
       1.0000E-03  1.0000E-03  1.0000E-03  1.0000E-03  1.0000E-03  1.0000E-03  1.0000E-03  1.0000E-03  1.0000E-03  1.0000E-03
       1.0000E-03  1.0000E-03  1.0000E-03  1.0000E-03  1.0000E-03  1.0000E-03  1.0000E-03  1.0000E-03  1.0000E-03  1.0000E-03
  27   1.0000E-03  1.0000E-03  1.0000E-03  1.0000E-03  1.0000E-03  1.0000E-03  1.0000E-03  1.0000E-03  1.0000E-03  1.0000E-03
       1.0000E-03  1.0000E-03  1.0000E-03  1.0000E-03  1.0000E-03  1.0000E-03  1.0000E-03  1.0000E-03  1.0000E-03  1.0000E-03
       1.0000E-03  1.0000E-03  1.0000E-03  1.0000E-03  1.0000E-03  1.0000E-03  1.0000E-03  1.0000E-03  1.0000E-03  1.0000E-03
       1.0000E-03  1.0000E-03  1.0000E-03  1.0000E-03  1.0000E-03  1.0000E-03  1.0000E-03  1.0000E-03  1.0000E-03  1.0000E-03
       1.0000E-03  1.0000E-03  1.0000E-03  1.0000E-03  1.0000E-03  1.0000E-03  1.0000E-03  1.0000E-03  1.0000E-03  1.0000E-03
  28   1.0000E-03  1.0000E-03  1.0000E-03  1.0000E-03  1.0000E-03  1.0000E-03  1.0000E-03  1.0000E-03  1.0000E-03  1.0000E-03
       1.0000E-03  1.0000E-03  1.0000E-03  1.0000E-03  1.0000E-03  1.0000E-03  1.0000E-03  1.0000E-03  1.0000E-03  1.0000E-03
       1.0000E-03  1.0000E-03  1.0000E-03  1.0000E-03  1.0000E-03  1.0000E-03  1.0000E-03  1.0000E-03  1.0000E-03  1.0000E-03
       1.0000E-03  1.0000E-03  1.0000E-03  1.0000E-03  1.0000E-03  1.0000E-03  1.0000E-03  1.0000E-03  1.0000E-03  1.0000E-03
       1.0000E-03  1.0000E-03  1.0000E-03  1.0000E-03  1.0000E-03  1.0000E-03  1.0000E-03  1.0000E-03  1.0000E-03  1.0000E-03
  29   1.0000E-03  1.0000E-03  1.0000E-03  1.0000E-03  1.0000E-03  1.0000E-03  1.0000E-03  1.0000E-03  1.0000E-03  1.0000E-03
       1.0000E-03  1.0000E-03  1.0000E-03  1.0000E-03  1.0000E-03  1.0000E-03  1.0000E-03  1.0000E-03  1.0000E-03  1.0000E-03
       1.0000E-03  1.0000E-03  1.0000E-03  1.0000E-03  1.0000E-03  1.0000E-03  1.0000E-03  1.0000E-03  1.0000E-03  1.0000E-03
[...]
   3    150.0       150.8       151.5       152.1       152.9       153.8       155.1       156.7       158.9       161.6    
        164.6       168.0       171.5       175.1       178.7       182.3       185.9       189.4       192.7       196.0    
        199.2       202.2       205.1       207.8       210.4       216.6       226.0       234.8       243.2       251.0    
        258.3       265.1       271.3       277.1       282.3       287.0       291.3       295.0       298.2       300.9    
        303.0       304.7       305.9       306.6       306.7       306.4       305.5       304.2       302.3       300.0    
   4    150.0       150.6       151.1       151.5       152.0       152.6       153.6       155.1       157.3       160.1    
        163.5       167.1       170.8       174.6       178.3       182.1       185.7       189.2       192.7       196.0    
        199.2       202.2       205.1       207.9       210.5       216.7       226.0       234.9       243.2       251.0    
        258.3       265.1       271.4       277.1       282.3       287.1       291.3       295.0       298.2       300.9    
        303.1       304.7       305.9       306.6       306.7       306.4       305.5       304.2       302.3       300.0    
   5    150.0       150.3       150.6       150.7       150.8       150.9       151.4       152.6       154.9       158.1    
        161.9       165.9       169.9       173.9       177.9       181.7       185.5       189.1       192.6       196.0    
        199.2       202.2       205.2       207.9       210.5       216.7       226.1       235.0       243.3       251.1    
        258.4       265.2       271.4       277.2       282.4       287.1       291.3       295.0       298.2       300.9    
        303.1       304.8       305.9       306.6       306.7       306.4       305.5       304.2       302.4       300.0    
   6    150.0       150.1       150.1       149.8       149.4       148.8       148.3       148.9       151.4       155.4    
        160.0       164.5       169.0       173.2       177.4       181.4       185.3       189.0       192.5       195.9    
        199.2       202.3       205.2       208.0       210.6       216.8       226.2       235.0       243.4       251.2    
        258.5       265.2       271.5       277.2       282.5       287.2       291.4       295.1       298.3       300.9    
        303.1       304.8       305.9       306.6       306.8       306.4       305.6       304.2       302.4       300.0    
   7    150.0       149.9       149.6       149.1       148.1       146.5       0.000       0.000       0.000       0.000    
        0.000       0.000       0.000       0.000       177.0       181.1       185.1       188.9       192.5       196.0    
        199.3       202.4       205.3       208.1       210.7       216.9       226.3       235.2       243.5       251.3    
        258.6       265.3       271.6       277.3       282.5       287.2       0.000       0.000       0.000       301.0    
        303.2       304.8       306.0       306.6       306.8       306.4       305.6       304.2       302.4       300.0    
   8    150.0       149.8       149.3       148.5       147.2       144.9       0.000       0.000       0.000       0.000    
        0.000       0.000       0.000       0.000       176.6       180.9       185.0       188.9       192.5       196.0    
        199.4       202.5       205.5       208.3       210.9       217.1       226.5       235.3       243.6       251.4    
        258.7       265.4       271.7       277.4       282.6       287.3       0.000       0.000       0.000       301.0    
        303.2       304.8       306.0       306.7       306.8       306.4       305.6       304.2       302.4       300.0    
   9    150.0       149.8       149.3       148.5       147.1       145.0       0.000       0.000       0.000       0.000    
        0.000       0.000       0.000       0.000       176.3       180.7       184.9       188.9       192.6       196.2    
        199.5       202.7       205.6       208.4       211.1       217.3       226.6       235.5       243.8       251.5    
        258.8       265.6       271.8       277.5       282.7       287.4       0.000       0.000       0.000       301.1    
        303.2       304.9       306.0       306.7       306.8       306.5       305.6       304.2       302.4       300.0    
  10    150.0       149.8       149.5       148.8       147.7       146.2       0.000       0.000       0.000       0.000    
        0.000       0.000       0.000       0.000       176.2       180.7       185.0       189.0       192.8       196.4    
        199.7       202.9       205.9       208.7       211.3       217.5       226.8       235.6       243.9       251.7    
        259.0       265.7       271.9       277.6       282.8       287.5       291.7       295.3       298.5       301.1    
        303.3       304.9       306.1       306.7       306.8       306.5       305.6       304.2       302.4       300.0    
  11    150.0       150.0       149.8       149.4       148.7       147.8       0.000       0.000       0.000       0.000    
        0.000       0.000       0.000       0.000       176.2       180.9       185.2       189.3       193.1       196.6    
        200.0       203.1       206.1       208.9       211.6       217.7       227.1       235.9       244.1       251.9    
        259.1       265.8       272.0       277.7       282.9       287.6       291.7       295.4       298.6       301.2    
        303.3       305.0       306.1       306.7       306.9       306.5       305.6       304.3       302.4       300.0    
  12    150.0       150.2       150.3       150.1       149.8       149.2       0.000       0.000       0.000       0.000    
        0.000       0.000       0.000       0.000       176.5       181.2       185.6       189.6       193.4       197.0    
        200.3       203.5       206.4       209.2       211.9       218.0       227.3       236.1       244.4       252.1    
        259.3       266.0       272.2       277.9       283.0       287.7       291.8       295.5       298.6       301.3    
        303.4       305.0       306.2       306.8       306.9       306.5       305.6       304.3       302.4       300.0    
  13    150.0       150.5       150.8       150.9       150.9       150.7       0.000       0.000       0.000       0.000    
        0.000       0.000       0.000       0.000       177.2       181.8       186.1       190.1       193.9       197.4    
        200.7       203.9       206.8       209.6       212.2       218.3       227.6       236.4       244.6       252.3    
        259.5       266.2       272.4       278.0       283.2       287.8       292.0       295.6       298.7       301.3    
        303.5       305.1       306.2       306.8       306.9       306.6       305.7       304.3       302.4       300.0    
  14    150.0       150.8       151.4       151.8       152.1       152.2       0.000       0.000       0.000       0.000    
        0.000       0.000       0.000       0.000       178.1       182.6       186.8       190.8       194.5       197.9    
        201.2       204.3       207.2       210.0       212.6       218.7       227.9       236.7       244.9       252.5    
        259.7       266.4       272.5       278.2       283.3       287.9       292.1       295.7       298.8       301.4    
        303.5       305.1       306.3       306.9       307.0       306.6       305.7       304.3       302.4       300.0    
  15    150.0       151.1       152.0       152.8       153.4       153.9       154.3       154.5       154.8       155.9    
        159.5       164.6       169.8       174.7       179.4       183.7       187.7       191.5       195.1       198.5    
        201.7       204.8       207.7       210.4       213.0       219.1       228.3       237.0       245.1       252.8    
        259.9       266.6       272.7       278.3       283.4       288.1       292.2       295.8       298.9       301.5    
        303.6       305.2       306.3       306.9       307.0       306.6       305.7       304.3       302.4       300.0    
  16    150.0       151.4       152.6       153.7       154.7       155.7       156.6       157.6       158.8       160.7    
        163.9       167.9       172.2       176.6       180.8       184.8       188.7       192.3       195.8       199.2    
        202.3       205.3       208.2       210.9       213.5       219.5       228.7       237.3       245.4       253.1    
        260.2       266.8       272.9       278.5       283.6       288.2       292.3       295.9       299.0       301.6    
        303.7       305.3       306.4       306.9       307.0       306.6       305.7       304.3       302.4       300.0    
  17    150.0       151.6       153.2       154.6       156.0       157.3       158.7       160.2       162.0       164.3    
        167.2       170.7       174.5       178.4       182.3       186.0       189.7       193.2       196.6       199.8    
        202.9       205.9       208.7       211.4       213.9       219.9       229.0       237.6       245.7       253.3    
        260.4       267.0       273.1       278.7       283.7       288.3       292.4       296.0       299.1       301.7    
        303.7       305.3       306.4       307.0       307.1       306.7       305.7       304.3       302.4       300.0    
  18    150.0       151.9       153.7       155.5       157.2       158.9       160.6       162.5       164.5       167.0    
        169.8       173.1       176.5       180.1       183.7       187.3       190.7       194.1       197.4       200.5    
        203.6       206.5       209.2       211.9       214.4       220.4       229.4       238.0       246.0       253.6    
        260.6       267.2       273.3       278.8       283.9       288.5       292.5       296.1       299.2       301.7    
        303.8       305.4       306.5       307.0       307.1       306.7       305.8       304.3       302.4       300.0    
  19    150.0       152.2       154.3       156.3       158.2       160.2       162.2       164.3       166.6       169.2    
        172.0       175.1       178.3       181.7       185.1       188.4       191.8       195.0       198.2       201.2    
        204.2       207.0       209.8       212.4       214.9       220.8       229.8       238.3       246.3       253.9    
        260.9       267.4       273.5       279.0       284.0       288.6       292.6       296.2       299.3       301.8    
        303.9       305.4       306.5       307.1       307.1       306.7       305.8       304.4       302.4       300.0    
  20    150.0       152.4       154.7       157.0       159.2       161.4       163.6       165.9       168.4       171.0    
        173.8       176.8       179.9       183.1       186.3       189.5       192.7       195.9       198.9       201.9    
        204.8       207.6       210.3       212.9       215.3       221.2       230.2       238.7       246.6       254.1    
        261.1       267.6       273.6       279.2       284.2       288.7       292.7       296.3       299.3       301.9    
        303.9       305.5       306.6       307.1       307.2       306.7       305.8       304.4       302.4       300.0    
  21    150.0       152.6       155.1       157.6       160.0       162.3       164.8       167.2       169.8       172.5    
        175.3       178.2       181.2       184.3       187.4       190.5       193.6       196.7       199.7       202.6    
        205.4       208.1       210.8       213.3       215.8       221.6       230.6       239.0       246.9       254.4    
        261.3       267.8       273.8       279.3       284.3       288.8       292.9       296.4       299.4       302.0    
        304.0       305.6       306.6       307.2       307.2       306.8       305.8       304.4       302.4       300.0    
  22    150.0       152.8       155.5       158.1       160.7       163.2       165.8       168.3       171.0       173.7    
        176.5       179.4       182.4       185.4       188.4       191.4       194.4       197.4       200.3       203.2    
        206.0       208.6       211.3       213.8       216.2       222.0       230.9       239.3       247.2       254.6    
        261.6       268.0       274.0       279.5       284.5       289.0       0.000       0.000       0.000       302.0    
        304.1       305.6       306.6       307.2       307.2       306.8       305.8       304.4       302.4       300.0    
  23    150.0       152.9       155.8       158.5       161.2       163.9       166.6       169.3       172.0       174.8    
        177.6       180.5       183.4       186.3       189.3       192.2       195.2       198.1       200.9       203.7    
        206.5       209.1       211.7       214.2       216.6       222.4       231.2       239.6       247.4       254.8    
        261.8       268.2       274.1       279.6       284.6       289.1       0.000       0.000       0.000       302.1    
        304.1       305.7       306.7       307.2       307.3       306.8       305.9       304.4       302.5       300.0    
  24    150.0       153.1       156.0       158.9       161.7       164.5       167.3       170.0       172.8       175.6    
        178.4       181.3       184.2       187.1       190.0       192.9       195.8       198.7       201.5       204.2    
        206.9       209.5       212.1       214.6       217.0       222.7       231.5       239.8       247.7       255.0    
        261.9       268.3       274.3       279.7       284.7       289.2       0.000       0.000       0.000       302.2    
        304.2       305.7       306.7       307.3       307.3       306.8       305.9       304.4       302.5       300.0    
  25    150.0       153.2       156.2       159.2       162.1       165.0       167.8       170.7       173.5       176.3    
        179.2       182.0       184.9       187.8       190.7       193.5       196.4       199.2       201.9       204.7    
        207.3       209.9       212.4       214.9       217.3       223.0       231.8       240.1       247.9       255.2    
        262.1       268.5       274.4       279.8       284.8       289.2       293.2       296.7       299.7       302.2    
        304.2       305.7       306.8       307.3       307.3       306.8       305.9       304.4       302.5       300.0    
  26    150.0       153.3       156.4       159.5       162.4       165.4       168.3       171.2       174.0       176.9    
        179.7       182.6       185.5       188.3       191.2       194.0       196.8       199.6       202.3       205.0    
        207.7       210.2       212.7       215.2       217.6       223.3       232.0       240.3       248.1       255.4    
        262.2       268.6       274.5       279.9       284.9       289.3       293.3       296.8       299.7       302.2    
        304.2       305.8       306.8       307.3       307.3       306.9       305.9       304.4       302.5       300.0    
  27    150.0       153.3       156.5       159.6       162.7       165.7       168.6       171.5       174.4       177.3    
        180.2       183.0       185.9       188.8       191.6       194.4       197.2       199.9       202.7       205.3    
        207.9       210.5       213.0       215.4       217.8       223.5       232.2       240.4       248.2       255.5    
        262.3       268.7       274.6       280.0       284.9       289.4       293.3       296.8       299.8       302.3    
        304.3       305.8       306.8       307.3       307.3       306.9       305.9       304.4       302.5       300.0    
  28    150.0       153.4       156.6       159.8       162.9       165.9       168.9       171.8       174.7       177.6    
        180.5       183.4       186.2       189.1       191.9       194.7       197.5       200.2       202.9       205.5    
        208.1       210.7       213.2       215.6       217.9       223.6       232.3       240.5       248.3       255.6    
        262.4       268.8       274.7       280.1       285.0       289.4       293.4       296.8       299.8       302.3    
        304.3       305.8       306.8       307.3       307.4       306.9       305.9       304.4       302.5       300.0    
  29    150.0       153.4       156.7       159.9       163.0       166.0       169.0       172.0       174.9       177.8    
        180.7       183.6       186.4       189.3       192.1       194.9       197.6       200.4       203.1       205.7    
        208.3       210.8       213.3       215.7       218.1       223.8       232.4       240.6       248.4       255.7    
        262.5       268.8       274.7       280.1       285.0       289.5       293.4       296.9       299.8       302.3    
        304.3       305.8       306.8       307.3       307.4       306.9       305.9       304.4       302.5       300.0    
  30    150.0       153.4       156.7       159.9       163.1       166.1       169.1       172.1       175.0       177.9    
        180.8       183.7       186.5       189.4       192.2       195.0       197.7       200.5       203.1       205.8    
        208.4       210.9       213.4       215.8       218.1       223.8       232.5       240.7       248.4       255.7    
        262.5       268.9       274.7       280.1       285.0       289.5       293.4       296.9       299.8       302.3    
        304.3       305.8       306.8       307.3       307.4       306.9       305.9       304.4       302.5       300.0    
1
  VOLUMETRIC BUDGET FOR ENTIRE MODEL AT END OF TIME STEP    1, STRESS PERIOD   1
  ------------------------------------------------------------------------------

     CUMULATIVE VOLUMES      L**3       RATES FOR THIS TIME STEP      L**3/T
     ------------------                 ------------------------

           IN:                                      IN:
           ---                                      ---
             STORAGE =           0.0000               STORAGE =           0.0000
       CONSTANT HEAD =     5683081.1414         CONSTANT HEAD =        5683.0811
            RECHARGE =  1358000000.0000              RECHARGE =     1358000.0000
       MANAGED WELLS =           0.0000         MANAGED WELLS =           0.0000
     GHOST-NODE FLUX =    50063522.1119       GHOST-NODE FLUX =       50063.5221

            TOTAL IN =  1413746603.2533              TOTAL IN =     1413746.6033

          OUT:                                     OUT:
          ----                                     ----
             STORAGE =           0.0000               STORAGE =           0.0000
       CONSTANT HEAD =   520030995.6475         CONSTANT HEAD =      520030.9956
            RECHARGE =           0.0000              RECHARGE =           0.0000
       MANAGED WELLS =           0.0000         MANAGED WELLS =           0.0000
     GHOST-NODE FLUX =   893715607.5978       GHOST-NODE FLUX =      893715.6076

           TOTAL OUT =  1413746603.2453             TOTAL OUT =     1413746.6032

            IN - OUT =       7.9420E-03              IN - OUT =       7.9416E-06

 PERCENT DISCREPANCY =           0.00     PERCENT DISCREPANCY =           0.00






         TIME SUMMARY AT END OF TIME STEP    1 IN STRESS PERIOD    1
                    SECONDS     MINUTES      HOURS       DAYS        YEARS
                    -----------------------------------------------------------
   TIME STEP LENGTH 8.64000E+07 1.44000E+06  24000.      1000.0      2.7379    
 STRESS PERIOD TIME 8.64000E+07 1.44000E+06  24000.      1000.0      2.7379    
         TOTAL TIME 8.64000E+07 1.44000E+06  24000.      1000.0      2.7379    
1
