                                  MODFLOW-LGR2     
      U.S. GEOLOGICAL SURVEY MODULAR FINITE-DIFFERENCE GROUNDWATER FLOW MODEL
                 VERSION GWM-2005 1.5.1 081214,FROM MF-LGR V2.0


     FINAL FLOW PROCESS SIMULATION FOR GWM                                                                                                                                                                   


 REWOUND ..\data\SUPPLY-3GRID\sup3g_c3.ba6
 FILE TYPE:BAS6   UNIT   41

 REWOUND ..\data\SUPPLY-3GRID\sup3g_c3.bc6
 FILE TYPE:BCF6   UNIT   42

 REWOUND ..\data\SUPPLY-3GRID\sup3g_c3.dis
 FILE TYPE:DIS   UNIT   43

 REWOUND ..\data\SUPPLY-3GRID\sup3g_chd.pcg
 FILE TYPE:PCG   UNIT   44

 REWOUND ..\data\SUPPLY-3GRID\sup3g_chd.rch
 FILE TYPE:RCH   UNIT   45

 REWOUND ..\data\SUPPLY-3GRID\sup3g_c3.gwm
 FILE TYPE:GWM   UNIT   46

 BAS -- BASIC PACKAGE, VERSION 7, 5/2/2005 INPUT READ FROM UNIT   41

 DISCRETIZATION INPUT DATA READ FROM UNIT   43
 #SUP3G Sample Problem, child #3 DIS file
    1 LAYERS        15 ROWS        15 COLUMNS
    1 STRESS PERIOD(S) IN SIMULATION
 MODEL TIME UNIT IS DAYS
 MODEL LENGTH UNIT IS UNDEFINED
  Confining bed flag for each layer:
   0

                     DELR =   200.000    

                     DELC =   200.000    

 TOP ELEVATION OF LAYER 1 =   200.000    

   MODEL LAYER BOTTOM EL. =   0.00000     FOR LAYER   1


 STRESS PERIOD     LENGTH       TIME STEPS     MULTIPLIER FOR DELT    SS FLAG
 ----------------------------------------------------------------------------
        1         1000.000          1                    1.000         SS

 STEADY-STATE SIMULATION



 
 #SUP3G Sample Problem, child #3 BAS6 file (15x15)                               
 THE FREE FORMAT OPTION HAS BEEN SELECTED



                     BOUNDARY ARRAY FOR LAYER   1
 READING ON UNIT   41 WITH FORMAT: (20I4)              

                1           2           3           4           5           6           7           8           9          10
               11          12          13          14          15
 ............................................................................................................................
   1           57          57          57          57          57          57          57          57          57          57
               57          57          57          57          57
   2           57           1           1           1           1           1           1           1           1           1
                1           1           1           1          57
   3           57           1           1           1           1           1           1           1           1           1
                1           1           1           1          57
   4           57           1           1           1           1           1           1           1           1           1
                1           1           1           1          57
   5           57           1           1           1           1           1           1           1           1           1
                1           1           1           1          57
   6           57           1           1           1           1           1           1           1           1           1
                1           1           1           1          57
   7           57           1           1           1           1           1           1           1           1           1
                1           1           1           1          57
   8           57           1           1           1           1           1           1           1           1           1
                1           1           1           1          57
   9           57           1           1           1           1           1           1           1           1           1
                1           1           1           1          57
  10           57           1           1           1           1           1           1           1           1           1
                1           1           1           1          57
  11           57           1           1           1           1           1           1           1           1           1
                1           1           1           1          57
  12           57           1           1           1           1           1           1           1           1           1
                1           1           1           1          57
  13           57           1           1           1           1           1           1           1           1           1
                1           1           1           1          57
  14           57           1           1           1           1           1           1           1           1           1
                1           1           1           1          57
  15           57          57          57          57          57          57          57          57          57          57
               57          57          57          57          57

 AQUIFER HEAD WILL BE SET TO  0.0000     AT ALL NO-FLOW NODES (IBOUND=0).

             INITIAL HEAD =   150.000     FOR LAYER   1

 DEFAULT OUTPUT CONTROL
 THE FOLLOWING OUTPUT COMES AT THE END OF EACH STRESS PERIOD:
 TOTAL VOLUMETRIC BUDGET
           HEAD

 BCF -- BLOCK-CENTERED FLOW PACKAGE, VERSION 7, 5/2/2005
         INPUT READ FROM UNIT 42
 STEADY-STATE SIMULATION
 HEAD AT CELLS THAT CONVERT TO DRY=   0.0000    
 WETTING CAPABILITY IS ACTIVE
 WETTING FACTOR=   1.00000     WETTING ITERATION INTERVAL=   1
 FLAG THAT SPECIFIES THE EQUATION TO USE FOR HEAD AT WETTED CELLS=   0
      LAYER  LAYER-TYPE CODE     INTERBLOCK T
      --------------------------------------------
         1            0          0 -- HARMONIC    

 COLUMN TO ROW ANISOTROPY =   1.00000    

     TRANSMIS. ALONG ROWS =   2000.00     FOR LAYER   1

 RCH -- RECHARGE PACKAGE, VERSION 7, 5/2/2005 INPUT READ FROM UNIT   45
 #SUP3G Sample Problem, child RECH file
     1 Named Parameters     
 OPTION 1 -- RECHARGE TO TOP LAYER


     1 Recharge parameters

 PARAMETER NAME:REC-CHD      TYPE:RCH    CLUSTERS:   1
 Parameter value from package file is:   1.00000E-03
                MULTIPLIER ARRAY: NONE    ZONE ARRAY: ALL
1
                            STRESS PERIOD NO.    1, LENGTH =   1000.000    
                            -----------------------------------------------

                              NUMBER OF TIME STEPS =     1

                               MULTIPLIER FOR DELT =     1.000

                            INITIAL TIME STEP SIZE =   1000.000    



 RECH array defined by the following parameters:
 Parameter:  REC-CHD

                 RECHARGE =  1.000000E-03

Flows at Managed Wells for Stress Period    1

 Well no.  Layer   Row   Col   Stress Rate
 ----------------------------------------------------
        1      1     9     9    0.000000000000000    
 ----------------------------------------------------
                      Total:    0.000000000000000    
 
 SOLVING FOR HEAD 


     3 CALLS TO PCG ROUTINE FOR TIME STEP   1 IN STRESS PERIOD    1
    21 TOTAL ITERATIONS


     3 CALLS TO PCG ROUTINE FOR TIME STEP   1 IN STRESS PERIOD    1
    19 TOTAL ITERATIONS


     3 CALLS TO PCG ROUTINE FOR TIME STEP   1 IN STRESS PERIOD    1
    18 TOTAL ITERATIONS


     3 CALLS TO PCG ROUTINE FOR TIME STEP   1 IN STRESS PERIOD    1
    17 TOTAL ITERATIONS


     3 CALLS TO PCG ROUTINE FOR TIME STEP   1 IN STRESS PERIOD    1
    17 TOTAL ITERATIONS


     3 CALLS TO PCG ROUTINE FOR TIME STEP   1 IN STRESS PERIOD    1
    17 TOTAL ITERATIONS


     3 CALLS TO PCG ROUTINE FOR TIME STEP   1 IN STRESS PERIOD    1
    16 TOTAL ITERATIONS


     3 CALLS TO PCG ROUTINE FOR TIME STEP   1 IN STRESS PERIOD    1
    14 TOTAL ITERATIONS


     3 CALLS TO PCG ROUTINE FOR TIME STEP   1 IN STRESS PERIOD    1
    15 TOTAL ITERATIONS


     3 CALLS TO PCG ROUTINE FOR TIME STEP   1 IN STRESS PERIOD    1
    14 TOTAL ITERATIONS


     3 CALLS TO PCG ROUTINE FOR TIME STEP   1 IN STRESS PERIOD    1
    13 TOTAL ITERATIONS


     2 CALLS TO PCG ROUTINE FOR TIME STEP   1 IN STRESS PERIOD    1
    11 TOTAL ITERATIONS


     2 CALLS TO PCG ROUTINE FOR TIME STEP   1 IN STRESS PERIOD    1
    11 TOTAL ITERATIONS


     2 CALLS TO PCG ROUTINE FOR TIME STEP   1 IN STRESS PERIOD    1
    11 TOTAL ITERATIONS


     2 CALLS TO PCG ROUTINE FOR TIME STEP   1 IN STRESS PERIOD    1
    10 TOTAL ITERATIONS


     2 CALLS TO PCG ROUTINE FOR TIME STEP   1 IN STRESS PERIOD    1
     9 TOTAL ITERATIONS


     2 CALLS TO PCG ROUTINE FOR TIME STEP   1 IN STRESS PERIOD    1
     9 TOTAL ITERATIONS


     2 CALLS TO PCG ROUTINE FOR TIME STEP   1 IN STRESS PERIOD    1
     8 TOTAL ITERATIONS


     2 CALLS TO PCG ROUTINE FOR TIME STEP   1 IN STRESS PERIOD    1
     7 TOTAL ITERATIONS


     2 CALLS TO PCG ROUTINE FOR TIME STEP   1 IN STRESS PERIOD    1
     6 TOTAL ITERATIONS


     2 CALLS TO PCG ROUTINE FOR TIME STEP   1 IN STRESS PERIOD    1
     6 TOTAL ITERATIONS


     2 CALLS TO PCG ROUTINE FOR TIME STEP   1 IN STRESS PERIOD    1
     5 TOTAL ITERATIONS


     2 CALLS TO PCG ROUTINE FOR TIME STEP   1 IN STRESS PERIOD    1
     4 TOTAL ITERATIONS


     2 CALLS TO PCG ROUTINE FOR TIME STEP   1 IN STRESS PERIOD    1
     3 TOTAL ITERATIONS
1
              HEAD IN LAYER   1 AT END OF TIME STEP   1 IN STRESS PERIOD    1
  ---------------------------------------------------------------------------

            1           2           3           4           5           6           7           8           9          10
           11          12          13          14          15
 ........................................................................................................................
   1    291.3       292.1       292.9       293.6       294.3       295.0       295.7       296.4       297.0       297.7    
        298.3       298.9       299.4       300.0       300.5    
   2    291.3       292.1       292.9       293.6       294.4       295.1       295.7       296.4       297.1       297.7    
        298.3       298.9       299.4       300.0       300.5    
   3    291.4       292.1       292.9       293.7       294.4       295.1       295.8       296.4       297.1       297.7    
        298.3       298.9       299.5       300.0       300.5    
   4    291.4       292.2       292.9       293.7       294.4       295.1       295.8       296.4       297.1       297.7    
        298.3       298.9       299.5       300.0       300.5    
   5    291.4       292.2       292.9       293.7       294.4       295.1       295.8       296.5       297.1       297.7    
        298.3       298.9       299.5       300.0       300.5    
   6    291.4       292.2       293.0       293.7       294.4       295.1       295.8       296.5       297.1       297.7    
        298.3       298.9       299.5       300.0       300.6    
   7    291.4       292.2       293.0       293.7       294.4       295.2       295.8       296.5       297.1       297.8    
        298.4       298.9       299.5       300.1       300.6    
   8    291.5       292.2       293.0       293.7       294.5       295.2       295.8       296.5       297.2       297.8    
        298.4       299.0       299.5       300.1       300.6    
   9    291.5       292.3       293.0       293.8       294.5       295.2       295.9       296.5       297.2       297.8    
        298.4       299.0       299.5       300.1       300.6    
  10    291.5       292.3       293.0       293.8       294.5       295.2       295.9       296.5       297.2       297.8    
        298.4       299.0       299.5       300.1       300.6    
  11    291.5       292.3       293.1       293.8       294.5       295.2       295.9       296.6       297.2       297.8    
        298.4       299.0       299.6       300.1       300.6    
  12    291.5       292.3       293.1       293.8       294.5       295.2       295.9       296.6       297.2       297.8    
        298.4       299.0       299.6       300.1       300.6    
  13    291.6       292.3       293.1       293.8       294.5       295.2       295.9       296.6       297.2       297.8    
        298.4       299.0       299.6       300.1       300.7    
  14    291.6       292.4       293.1       293.8       294.6       295.3       295.9       296.6       297.2       297.9    
        298.5       299.0       299.6       300.1       300.7    
  15    291.6       292.4       293.1       293.9       294.6       295.3       296.0       296.6       297.3       297.9    
        298.5       299.1       299.6       300.2       300.7    
1
  VOLUMETRIC BUDGET FOR ENTIRE MODEL AT END OF TIME STEP    1, STRESS PERIOD   1
  ------------------------------------------------------------------------------

     CUMULATIVE VOLUMES      L**3       RATES FOR THIS TIME STEP      L**3/T
     ------------------                 ------------------------

           IN:                                      IN:
           ---                                      ---
             STORAGE =           0.0000               STORAGE =           0.0000
       CONSTANT HEAD =           0.0000         CONSTANT HEAD =           0.0000
            RECHARGE =     9000000.0000              RECHARGE =        9000.0000
       MANAGED WELLS =           0.0000         MANAGED WELLS =           0.0000
     GHOST-NODE HEAD =    15519089.8555       GHOST-NODE HEAD =       15519.0899

            TOTAL IN =    24519089.8555              TOTAL IN =       24519.0899

          OUT:                                     OUT:
          ----                                     ----
             STORAGE =           0.0000               STORAGE =           0.0000
       CONSTANT HEAD =           0.0000         CONSTANT HEAD =           0.0000
            RECHARGE =           0.0000              RECHARGE =           0.0000
       MANAGED WELLS =           0.0000         MANAGED WELLS =           0.0000
     GHOST-NODE HEAD =    24519089.8564       GHOST-NODE HEAD =       24519.0899

           TOTAL OUT =    24519089.8564             TOTAL OUT =       24519.0899

            IN - OUT =      -9.0540E-04              IN - OUT =      -9.0540E-07

 PERCENT DISCREPANCY =           0.00     PERCENT DISCREPANCY =           0.00






         TIME SUMMARY AT END OF TIME STEP    1 IN STRESS PERIOD    1
                    SECONDS     MINUTES      HOURS       DAYS        YEARS
                    -----------------------------------------------------------
   TIME STEP LENGTH 8.64000E+07 1.44000E+06  24000.      1000.0      2.7379    
 STRESS PERIOD TIME 8.64000E+07 1.44000E+06  24000.      1000.0      2.7379    
         TOTAL TIME 8.64000E+07 1.44000E+06  24000.      1000.0      2.7379    
1
1
  FLUX ACROSS PARENT-CHILD INTERFACE AT TIME STEP  1 IN STRESS PERIOD    1
  ------------------------------------------------------------------------
 G-N FLUX        PARENT        CHILD         DIFFERENCE      % DIFFERENCE
  RATE IN:      1.5519E+04    1.5519E+04    -2.2018E-04        0.0000
 RATE OUT:      2.4519E+04    2.4519E+04    -2.2070E-04        0.0000

 Run end date and time (yyyy/mm/dd hh:mm:ss): 2014/08/12 13:05:37
 Elapsed run time:  1.367 Seconds

